194

C -5.0710522388059704 1.0783507462686561 0.47044029850746183
C -3.8153522388059704 0.1782507462686569 0.19534029850746193
C -4.11845223880597 -1.3219492537313435 0.5608402985074619
C -2.96945223880597 -2.3874492537313436 0.7034402985074619
C -2.52015223880597 0.7359507462686565 0.7384402985074618
C -2.20305223880597 0.7852507462686571 2.097440298507462
C -1.5755522388059702 1.205650746268656 -0.18965970149253808
C -0.9533522388059701 1.2695507462686564 2.508640298507462
H -2.91125223880597 0.4298507462686567 2.840840298507462
C -0.32655223880597006 1.6562507462686575 0.21554029850746192
H -1.7850522388059702 1.178550746268657 -1.2573597014925382
C 0.004447761194029898 1.6956507462686563 1.569740298507462
H -0.7158522388059702 1.2676507462686573 3.5705402985074617
H 0.3943477611940298 1.9193507462686572 -0.5551597014925382
C -1.76045223880597 -2.1592492537313435 -0.1734597014925381
C -0.5287522388059701 -1.936549253731343 0.464840298507462
C -1.8068522388059702 -2.121249253731343 -1.5681597014925381
C 0.6114477611940299 -1.614449253731343 -0.2582597014925381
H -0.4544522388059702 -1.954049253731343 1.5506402985074619
C -0.6479522388059701 -1.8270492537313432 -2.2998597014925384
H -2.74345223880597 -2.290549253731343 -2.092259701492538
C 0.5698477611940298 -1.5506492537313434 -1.6506597014925382
H 1.5072477611940298 -1.351949253731343 0.2991402985074618
H -0.7173522388059701 -1.7640492537313435 -3.3840597014925375
C 1.7791477611940298 -1.082849253731343 -2.4255597014925376
H 1.4739477611940297 -0.9102492537313429 -3.464259701492538
H 2.1252477611940295 -0.1337492537313434 -2.0010597014925384
C 1.3965477611940298 2.0964507462686566 1.997440298507462
H 1.51704776119403 1.8448507462686567 3.057640298507462
H 2.1256477611940294 1.5207507462686571 1.4165402985074618
C 3.94864776119403 -1.4275492537313434 -3.522959701492538
H 4.81734776119403 -2.087049253731343 -3.615159701492538
H 3.4305477611940303 -1.3641492537313429 -4.484459701492538
H 4.26984776119403 -0.441449253731343 -3.176459701492538
C 2.60904776119403 -3.4296492537313434 -2.8992597014925376
H 1.9825477611940296 -3.869549253731343 -2.119359701492538
H 2.06294776119403 -3.373349253731343 -3.845759701492538
H 3.5215477611940305 -4.019849253731343 -3.0234597014925377
C 3.7281477611940304 -2.060049253731343 -1.156659701492538
H 3.9048477611940298 -1.032549253731343 -0.8295597014925382
H 3.12924776119403 -2.623249253731343 -0.4404597014925382
H 4.68244776119403 -2.5769492537313434 -1.3005597014925383
C 3.1110477611940297 3.755250746268656 2.588740298507462
H 3.40124776119403 4.809350746268656 2.534540298507462
H 2.9823477611940303 3.461750746268656 3.634840298507462
H 3.86514776119403 3.1392507462686563 2.091540298507462
C 1.99744776119403 3.9574507462686572 0.40494029850746194
H 2.67914776119403 3.230350746268657 -0.04295970149253803
H 1.03214776119403 3.981150746268657 -0.10175970149253821
H 2.4399477611940297 4.958250746268657 0.368240298507462
C 0.7418477611940297 4.4992507462686575 2.475440298507462
H -0.18475223880597014 4.424250746268656 1.901240298507462
H 0.57844776119403 4.189650746268656 3.511940298507462
H 1.1210477611940297 5.524350746268658 2.4432402985074617
N 3.00114776119403 -2.025349253731343 -2.490159701492538
N 1.7831477611940298 3.586450746268657 1.862540298507462
C -3.55075223880597 -3.8435492537313434 0.6444402985074619
H -2.62515223880597 -2.2736492537313433 1.7424402985074618
H -4.67195223880597 -1.3478492537313436 1.5102402985074619
H -4.83415223880597 -1.6757492537313432 -0.1945597014925382
H -3.7169522388059697 0.17335074626865676 -0.900559701492538
H -3.9132522388059705 -4.043149253731343 -0.34225970149253815
H -4.35435223880597 -3.9354492537313432 1.3449402985074619
H -2.78115223880597 -4.545049253731343 0.8904402985074619
H -5.24235223880597 1.138950746268657 1.5249402985074618
H -5.92805223880597 0.6501507462686567 -0.006059701492538094
H -4.89895223880597 2.059650746268657 0.08004029850746197
C 1.7740867577311887 3.2670870337118467 -2.869315365705905
O 1.8380646209899865 2.565028302296003 -3.8667099061238956
O 0.8454257429988379 3.262479277899656 -2.0531052503540703
O 2.6281147308527215 4.090820834173997 -2.5218283422041505
O 3.718906580001975 3.046005513322987 -6.695874033960646
H 3.718278151211417 3.14444348729616 -7.6598641414084945
H 4.21614689142051 3.8163058128424003 -6.3822636617458555
O -3.002493829559721 3.194780428804555 3.9635329734755107
H -3.707292962236876 3.0399640071197167 3.3168047345263885
H -3.295869005511782 3.9826620429587813 4.445337407362153
O 3.851789487361747 -8.927802513128274 -0.7918784723308966
H 2.944564491317512 -8.606184333198005 -0.903556177316623
H 4.388291214308412 -8.292282483348577 -1.2891129572895126
O -1.0613312394127508 -1.1985362955603838 6.260288457021404
H -1.8026122455736535 -1.7940908390962256 6.44679479063744
H -1.4745861092453443 -0.32474706188140745 6.19191644544976
O -1.1271660252028823 -0.5337684364337817 8.441055196155265
H -1.7724031159988165 -0.41874521997296277 9.154782113986034
H -0.40657314106086506 0.06938200906814451 8.677523755830157
O -8.081253421205567 -2.654138030583021 1.3658450156749047
H -7.534242118915984 -3.2007418657299196 0.7819184454024455
H -8.791262258638598 -3.250466089226453 1.6473450006510144
O 1.8870392505227667 -6.770962481270758 4.9675964772568495
H 2.5909421783920243 -7.374038158373177 4.685129217694708
H 1.5680548186555427 -7.155975288849554 5.797642267877245
O -1.0213720611634103 5.856274391975604 4.143147858236539
H -1.7912405749471303 5.519789742787995 4.625898217372128
H -0.2877616879947539 5.7462695035354105 4.766587261224996
O -3.5219670195513237 7.033602781471689 -3.2636316748336647
H -3.5312062198918177 6.991005907054998 -2.2956092058966067
H -3.653855624512924 6.11415513469671 -3.5396450169409506
O 6.290494382767083 3.086944554653864 -9.03549400347576
H 5.89033642226393 3.4945817923027005 -8.25275979186368
H 6.15001593378812 2.1374387544245876 -8.90257867327105
O 4.2164790933736365 2.3869773471796627 6.3922162053421365
H 4.342551301244357 2.641603066579113 5.465804364785834
H 4.81723236216941 2.970801953253753 6.8792544827635576
O 1.1898242666278027 9.101817863519383 -1.7139081880818936
H 1.6786188978692995 9.07523737105741 -2.5501740804809385
H 1.8798449179580934 9.21434946952256 -1.0429610346576723
O 7.425766170686594 3.2400957813488303 5.574348475168779
H 7.707391753871018 3.281065890921235 4.648078623604096
H 8.029882238118514 2.596709996764907 5.974424034989572
O -5.331401043527087 -2.519282012624705 -6.440014430930131
H -5.379827486617851 -1.9839635185821307 -5.633753712275447
H -4.631339140296405 -3.1624171366258147 -6.252257971064937
O 2.716284851928058 -6.629610205921791 1.911701668854627
H 2.200847231331583 -6.873836703999774 2.695056527019438
H 3.476617423932648 -6.149137569686782 2.272260083093239
O -1.6288960440015614 7.3835228216830195 -5.062195824886651
H -2.038875546713717 8.094838853834986 -4.5474981790211615
H -1.101113169799695 6.897565271804613 -4.410849187745267
O -0.41890100580250644 1.298259213104942 -6.546355457777269
H 0.14593061111500094 2.083902556482554 -6.49442147625454
H -0.3095986738905876 0.8738636000809744 -5.6821197791660305
O -5.588796660361693 0.40174835223764527 4.307903778782525
H -6.00423990202665 1.1581975148444756 4.748538473565334
H -4.70972763232926 0.3492158358472541 4.712180816191039
O 0.715404484087637 -1.8195008905981127 -8.96459951233579
H 1.0508856102604813 -2.59879602636756 -8.496498174751842
H 0.8177929333930583 -1.0996390130753833 -8.324070491105463
O -4.575803981475646 -7.968881880754429 1.102166492416865
H -5.2261915715061384 -7.252734705002313 1.0465197288398258
H -5.020169364881466 -8.721635436561362 0.6839997379389211
C 13.286436630968122 -12.962802525021834 -9.24317869288244
O 12.775332783160547 -11.923221831410064 -9.544613753096021
O 13.797540478775694 -14.002383218633604 -8.94174363266886
O -0.5903369795046647 10.575696384009488 -16.15221243030984
H -0.20895465352486386 11.4457902398512 -16.343135347626593
H -0.7282845412318641 10.183441936925899 -17.02746602970642
O 5.689486524121176 8.156366374138265 10.973944693954914
H 4.766820494803002 8.27770229454245 10.703884793818105
H 5.698087819765983 7.282008385588454 11.391540275675267
O 4.3992700418246695 -16.45973953176339 -10.739462857250068
H 3.6488846720400114 -15.846721766523093 -10.729544530126422
H 5.0685337201401985 -16.019300623363396 -10.194429242548203
O -1.2286281288600964 -8.688932131035145 -8.77369227633858
H -0.9751592369912871 -9.391081169709587 -9.391517174868378
H -0.39195046430326097 -8.427061314666076 -8.360950098380092
O -8.13756992326826 -15.594185228970396 9.00024782650228
H -8.755378466239113 -15.863399179320949 9.696526369952306
H -8.587036372324143 -15.844235029016055 8.17901889802361
O -10.089478384376811 1.0141927123020933 2.7517129011128416
H -10.421249616669424 0.11976373603125112 2.9216894075192696
H -10.63182850874765 1.328514008803413 2.01278096279872
O 5.15196620017262 14.967928928308577 10.615225198711517
H 5.90910979865235 15.09256357002506 11.206974414397834
H 4.513998857446687 15.636168571192243 10.907484319345794
O -5.005859027527425 -5.695513703261987 -9.974616978567223
H -5.663572223907691 -4.991197333264189 -9.873033716361393
H -4.227632851942523 -5.358400305318867 -9.505916092220996
O 7.144888371571964 -1.5356499968694592 -10.952317291858147
H 6.711640128015131 -2.352738785159343 -11.241504477614866
H 7.585366827963963 -1.208897457034746 -11.751174883338685
O -9.057551740578564 6.600225238166615 12.940019632475646
H -9.02779233871352 6.323375986469458 13.86815552055204
H -8.152498877692285 6.458255588923714 12.624288927007843
O -11.286349767400056 15.553112779427488 0.3236406674525609
H -10.371799359756613 15.41291120689709 0.6115789036061112
H -11.237863433760484 16.34526749883282 -0.23232868446717703
O -21.156297293744675 -1.0998410156825478 3.97185339300919
H -20.534132848229422 -0.6545856420095075 3.3771884353633044
H -20.935280109083436 -0.7485887703027767 4.8474875680503935
O 9.573593069250927 -2.8145933149859563 3.7725674324352947
H 10.370151560126969 -2.813388849306267 3.2207880591567113
H 9.146697156983073 -3.6594837697055773 3.565487873056131
O -3.0243004645932814 -19.84136412804343 7.312404601421926
H -2.2468469454538695 -19.3093527927967 7.539334814586095
H -3.7632579142072213 -19.358061711465556 7.711556960916453
O -3.671439148109524 11.601406942534062 -1.9000446535355544
H -4.307804787870002 12.323943636035912 -1.7907429793688112
H -2.96164164964204 11.818419172817535 -1.2771039281236625
O 5.403724397736644 -10.479372704327794 3.0620268625655616
H 5.185022212158125 -11.003119763327826 2.276644325764547
H 6.356722851813872 -10.323566151033761 2.9815271186091445
O -2.9636255353698377 -18.378981597758944 4.66837201445211
H -2.8801042494719145 -18.213630885014016 3.7172407440710438
H -3.3196514437526448 -17.549113002094852 5.0198341187972355
O 8.948388538432374 16.95020194843998 -0.5513087057158788
H 9.880626164384914 17.149079553805716 -0.7255156623575787
H 8.771246392259876 16.16613578265924 -1.0924397915234585
O 3.7804443278665563 10.741537093794015 17.139869302200836
H 3.9142037627053528 10.774831604821536 16.18072007187896
H 4.659900440990143 10.537589597250976 17.49189814767146
O 2.5466218434880834 11.88747237713629 1.6916705212310599
H 3.169898238081381 11.811956251505098 0.9535707938144764
H 1.7115200948022578 11.55736162606712 1.3275360602548654