194

C -5.0710522388059704 1.0783507462686561 0.47044029850746183
C -3.8153522388059704 0.1782507462686569 0.19534029850746193
C -4.11845223880597 -1.3219492537313435 0.5608402985074619
C -2.96945223880597 -2.3874492537313436 0.7034402985074619
C -2.52015223880597 0.7359507462686565 0.7384402985074618
C -2.20305223880597 0.7852507462686571 2.097440298507462
C -1.5755522388059702 1.205650746268656 -0.18965970149253808
C -0.9533522388059701 1.2695507462686564 2.508640298507462
H -2.91125223880597 0.4298507462686567 2.840840298507462
C -0.32655223880597006 1.6562507462686575 0.21554029850746192
H -1.7850522388059702 1.178550746268657 -1.2573597014925382
C 0.004447761194029898 1.6956507462686563 1.569740298507462
H -0.7158522388059702 1.2676507462686573 3.5705402985074617
H 0.3943477611940298 1.9193507462686572 -0.5551597014925382
C -1.76045223880597 -2.1592492537313435 -0.1734597014925381
C -0.5287522388059701 -1.936549253731343 0.464840298507462
C -1.8068522388059702 -2.121249253731343 -1.5681597014925381
C 0.6114477611940299 -1.614449253731343 -0.2582597014925381
H -0.4544522388059702 -1.954049253731343 1.5506402985074619
C -0.6479522388059701 -1.8270492537313432 -2.2998597014925384
H -2.74345223880597 -2.290549253731343 -2.092259701492538
C 0.5698477611940298 -1.5506492537313434 -1.6506597014925382
H 1.5072477611940298 -1.351949253731343 0.2991402985074618
H -0.7173522388059701 -1.7640492537313435 -3.3840597014925375
C 1.7791477611940298 -1.082849253731343 -2.4255597014925376
H 1.4739477611940297 -0.9102492537313429 -3.464259701492538
H 2.1252477611940295 -0.1337492537313434 -2.0010597014925384
C 1.3965477611940298 2.0964507462686566 1.997440298507462
H 1.51704776119403 1.8448507462686567 3.057640298507462
H 2.1256477611940294 1.5207507462686571 1.4165402985074618
C 3.94864776119403 -1.4275492537313434 -3.522959701492538
H 4.81734776119403 -2.087049253731343 -3.615159701492538
H 3.4305477611940303 -1.3641492537313429 -4.484459701492538
H 4.26984776119403 -0.441449253731343 -3.176459701492538
C 2.60904776119403 -3.4296492537313434 -2.8992597014925376
H 1.9825477611940296 -3.869549253731343 -2.119359701492538
H 2.06294776119403 -3.373349253731343 -3.845759701492538
H 3.5215477611940305 -4.019849253731343 -3.0234597014925377
C 3.7281477611940304 -2.060049253731343 -1.156659701492538
H 3.9048477611940298 -1.032549253731343 -0.8295597014925382
H 3.12924776119403 -2.623249253731343 -0.4404597014925382
H 4.68244776119403 -2.5769492537313434 -1.3005597014925383
C 3.1110477611940297 3.755250746268656 2.588740298507462
H 3.40124776119403 4.809350746268656 2.534540298507462
H 2.9823477611940303 3.461750746268656 3.634840298507462
H 3.86514776119403 3.1392507462686563 2.091540298507462
C 1.99744776119403 3.9574507462686572 0.40494029850746194
H 2.67914776119403 3.230350746268657 -0.04295970149253803
H 1.03214776119403 3.981150746268657 -0.10175970149253821
H 2.4399477611940297 4.958250746268657 0.368240298507462
C 0.7418477611940297 4.4992507462686575 2.475440298507462
H -0.18475223880597014 4.424250746268656 1.901240298507462
H 0.57844776119403 4.189650746268656 3.511940298507462
H 1.1210477611940297 5.524350746268658 2.4432402985074617
N 3.00114776119403 -2.025349253731343 -2.490159701492538
N 1.7831477611940298 3.586450746268657 1.862540298507462
C -3.55075223880597 -3.8435492537313434 0.6444402985074619
H -2.62515223880597 -2.2736492537313433 1.7424402985074618
H -4.67195223880597 -1.3478492537313436 1.5102402985074619
H -4.83415223880597 -1.6757492537313432 -0.1945597014925382
H -3.7169522388059697 0.17335074626865676 -0.900559701492538
H -3.9132522388059705 -4.043149253731343 -0.34225970149253815
H -4.35435223880597 -3.9354492537313432 1.3449402985074619
H -2.78115223880597 -4.545049253731343 0.8904402985074619
H -5.24235223880597 1.138950746268657 1.5249402985074618
H -5.92805223880597 0.6501507462686567 -0.006059701492538094
H -4.89895223880597 2.059650746268657 0.08004029850746197
C 1.9337778200823577 2.5955206983860566 -3.4545437939745867
O 2.3602942661067043 2.6643464501851852 -4.596963259740136
O 1.0543412112776291 3.321818322811706 -2.977349414347482
O 2.315589344480272 1.7889105358283364 -2.598828660360865
O 9.763816066695204 1.672911191198927 6.552761919889231
H 9.718645285063829 1.9496855626248468 7.4802978516506915
H 8.836631533766397 1.6388874851589406 6.2732388016594625
O -0.8672126000587115 -2.1432753573726395 8.732925313552713
H -1.473259941969066 -2.039369694147953 7.984007701653223
H -0.16282194386815707 -2.711657136541653 8.386893666329357
O -8.092474274068321 5.787505512415451 -1.7263714018950074
H -8.70132248709856 6.018258961119359 -1.0087196365511604
H -8.366521021787126 6.359621684642844 -2.4588626372286604
O 1.730954243870389 -2.251000326763937 5.186350651904816
H 1.802522435643597 -2.7599448181778974 6.007825457048406
H 1.124965322627098 -2.773216136138417 4.639514277776551
O -1.8023387010515888 7.989043151143175 -1.4365918763431424
H -1.4468765109658253 8.553078654758616 -0.7334006228560781
H -1.3392303810914108 8.288435100587998 -2.2333710734180223
O 7.6343812033146925 1.2511737481030671 0.15145751167944943
H 8.164142337933288 1.275635236640079 -0.6595431866717747
H 8.210739734913126 1.6514905331842642 0.8196784773307451
O -8.259550939247902 -1.6737000042276167 -3.5265476122021497
H -7.825916686167311 -1.3827045660661095 -2.7103060141293542
H -8.519808705043275 -2.588282961367649 -3.3400915740800405
O -5.855982675384687 5.337946741262782 -3.390575611359753
H -5.254194212570532 4.857086335018461 -2.8027054959173
H -5.660028901922232 4.980247299487446 -4.269560919723572
O 6.6470982555129305 -7.709984619111211 2.5731640907521998
H 6.3957034754449875 -8.637922613739722 2.6944039339532204
H 7.005223766158612 -7.449962366227868 3.4351945373898136
O 0.10923033400113802 6.894276868914105 4.854473538795707
H 0.7266990139971741 6.180067858596147 4.6362872062617955
H -0.022803324758201793 6.8056747304374525 5.810338967771975
O 7.690129207968538 -3.5167371213979894 5.506821612059144
H 7.732558875401688 -2.857347423573826 4.798039341806232
H 7.920654702035185 -3.017741355150029 6.304833620835917
O -1.5798219179167798 -6.156434829039743 1.2563483010033198
H -0.6181585884433878 -6.108459600449262 1.1474016393388051
H -1.7000337668054666 -6.7414494380374315 2.0194138047092873
O 3.5369426577983964 -2.6358659224476053 -9.400659141303333
H 2.8668627270849827 -2.0274500828968787 -9.74676665283536
H 4.085777645152385 -2.842934271233049 -10.171933930135054
O -3.9617133773272575 -7.739702914723299 7.954851185977084
H -2.994187897478322 -7.719067993366377 8.004207064691597
H -4.2278702978623315 -8.195339039943923 8.7675738689048
O 1.9360529571820742 -7.966983282092221 -3.014830201934109
H 1.9211863069505326 -7.147826871224812 -3.5322556691713887
H 1.1181404198563363 -8.419736790869974 -3.2697719322859804
O -9.429246131371933 1.0658474125743087 2.108634195498879
H -8.956178469199466 0.7913769732072309 2.908534390410921
H -9.818665047382302 0.24426721745687274 1.7734911884942504
O -8.154495177125188 4.254475546778587 3.7155256754259605
H -7.987651362487418 4.422274328258565 2.7758586773085674
H -7.63079276810284 4.9308951883389165 4.170667630859191
O 0.40100553906666025 -11.837655803773531 -0.2775087608270357
H 0.1359470296358758 -11.591306757325686 0.6213925078296332
H -0.3952178540547271 -11.681792781321338 -0.8073171892031143
O -4.009871692740343 5.853698830159251 0.7527441997095505
H -4.233304906152612 5.051174110562494 0.2577704322426104
H -4.110275915993078 5.59213935885397 1.6803581168235167
O -3.314465283050442 9.531441787168719 0.2067740197536816
H -4.184065934614891 9.787296990060867 -0.13571711714142998
H -3.4351531091367975 8.612268214878997 0.48876043243822553
C 0.8680784408135391 19.59052342436118 -1.2074070482445265
O 0.03609597861798619 18.976070397227627 -0.6048533847875417
O 1.7000609030090938 20.204976451494737 -1.809960711701513
O -3.551240773506588 2.078860177187698 -13.753335382696514
H -3.205119210051781 2.9752748171365733 -13.878267418207544
H -4.1334597550771885 1.9443414643354642 -14.516151033880647
O 6.979131342911394 -4.128505255855706 -3.748109950460551
H 7.6750322703258345 -3.559147529089376 -3.3868329997770052
H 7.463559119310068 -4.87217302562038 -4.137018579789693
O 7.888258886853368 17.235384386032294 -3.9213222620697925
H 7.863079981648011 17.563817712899954 -3.0100237767010847
H 7.1619800945884915 16.595053100989755 -3.9594916948929555
O 0.3733670518753014 -12.433246014978607 15.30456801281577
H 0.32448655583459995 -12.392681515753557 14.337648897579424
H 0.34397228435143745 -11.504554570461497 15.579577272337952
O 0.941796198861327 15.387754648224123 15.330724214982308
H 1.726174051242495 15.450875992813177 14.765273565101014
H 0.5845247641489868 14.50787999845907 15.138007669404587
O -2.6470358996718955 -9.20643107730942 -5.336082137790231
H -3.5119570598782954 -8.805409794330117 -5.162701994391827
H -2.252194035593715 -8.630087588905916 -6.007565592572361
O -2.740884508072482 -13.12861617220035 5.875450706095563
H -2.836431192394456 -12.996180384274025 6.83059412469374
H -1.9966301744597383 -12.55732080512806 5.633233789344503
O -17.656053990173632 10.838111492891384 -12.305325740522836
H -17.778708023678877 10.883276785987668 -13.265473354832437
H -17.2533830136917 11.690316655686875 -12.080460470852751
O -4.518698758461072 -10.285098069247208 -9.776972813004416
H -4.528704110523304 -10.502103891880918 -10.721311588430472
H -3.8167042523590338 -10.846605832543066 -9.415206742924541
O -1.6966167515702026 3.2474520648368355 8.954265175594038
H -2.296173261795108 3.699126130986153 8.341492880271318
H -1.0568718563765733 3.9315399435630045 9.202684553971856
O 7.154056021112561 3.0171999326195102 16.808527751214903
H 7.372831648637852 2.477157428062244 17.58277491780477
H 6.264510078511952 2.722771066540759 16.56158321670894
O 5.954143409316449 11.62882180882268 -4.373257109972068
H 5.624344368342292 11.907923418879397 -3.5059035253618034
H 6.514020783481619 10.863071964334672 -4.1754530507
O 5.858133213046675 20.826801353967145 -14.804059311685522
H 5.9169501257940835 20.90368455311618 -15.768215368225892
H 5.888442424174276 21.744292958491688 -14.493813519372711
O 8.691128774272368 16.348500280022183 -8.142565363964891
H 8.27876006892982 16.765906788129904 -7.371403114666192
H 8.052456322293692 16.493575444366297 -8.856717056586335
O 17.539904561597044 -1.4303663568487037 4.257888154775051
H 18.165911516771306 -1.6156663221088694 3.541824909071128
H 18.06719745623934 -0.9448527930157633 4.9099623276219635
O -6.621107657381426 -16.1183268097844 -11.217258387220188
H -6.316954933981778 -16.348020388041462 -12.108156438545953
H -5.878175403658432 -15.62695061501792 -10.835731132761365
O -0.2638688436312737 -11.182417898341843 -4.305923981003666
H 0.3503644946274651 -11.454215550173815 -3.6074894461114155
H 0.3024169851691356 -11.066838020197778 -5.083692324514789
O -1.412444313733685 -19.85900679993623 7.714737938776604
H -1.0418036949403486 -19.12705653327219 8.230336324859156
H -1.6640686560815885 -20.51294466804697 8.38407522243019
O -20.623886401718323 -4.520251662704922 -6.12560250735734
H -21.159453884428817 -4.261913663219798 -6.890714464122602
H -21.011857111027084 -4.023247102547111 -5.389785179346648
O 14.360571054616647 2.9122242106018916 -1.0004368791358633
H 15.010310448033934 3.418620518333695 -0.49017336186528837
H 14.165214373628187 2.1479541940327387 -0.43768555460027514