194

C -5.0710522388059704 1.0783507462686561 0.47044029850746183
C -3.8153522388059704 0.1782507462686569 0.19534029850746193
C -4.11845223880597 -1.3219492537313435 0.5608402985074619
C -2.96945223880597 -2.3874492537313436 0.7034402985074619
C -2.52015223880597 0.7359507462686565 0.7384402985074618
C -2.20305223880597 0.7852507462686571 2.097440298507462
C -1.5755522388059702 1.205650746268656 -0.18965970149253808
C -0.9533522388059701 1.2695507462686564 2.508640298507462
H -2.91125223880597 0.4298507462686567 2.840840298507462
C -0.32655223880597006 1.6562507462686575 0.21554029850746192
H -1.7850522388059702 1.178550746268657 -1.2573597014925382
C 0.004447761194029898 1.6956507462686563 1.569740298507462
H -0.7158522388059702 1.2676507462686573 3.5705402985074617
H 0.3943477611940298 1.9193507462686572 -0.5551597014925382
C -1.76045223880597 -2.1592492537313435 -0.1734597014925381
C -0.5287522388059701 -1.936549253731343 0.464840298507462
C -1.8068522388059702 -2.121249253731343 -1.5681597014925381
C 0.6114477611940299 -1.614449253731343 -0.2582597014925381
H -0.4544522388059702 -1.954049253731343 1.5506402985074619
C -0.6479522388059701 -1.8270492537313432 -2.2998597014925384
H -2.74345223880597 -2.290549253731343 -2.092259701492538
C 0.5698477611940298 -1.5506492537313434 -1.6506597014925382
H 1.5072477611940298 -1.351949253731343 0.2991402985074618
H -0.7173522388059701 -1.7640492537313435 -3.3840597014925375
C 1.7791477611940298 -1.082849253731343 -2.4255597014925376
H 1.4739477611940297 -0.9102492537313429 -3.464259701492538
H 2.1252477611940295 -0.1337492537313434 -2.0010597014925384
C 1.3965477611940298 2.0964507462686566 1.997440298507462
H 1.51704776119403 1.8448507462686567 3.057640298507462
H 2.1256477611940294 1.5207507462686571 1.4165402985074618
C 3.94864776119403 -1.4275492537313434 -3.522959701492538
H 4.81734776119403 -2.087049253731343 -3.615159701492538
H 3.4305477611940303 -1.3641492537313429 -4.484459701492538
H 4.26984776119403 -0.441449253731343 -3.176459701492538
C 2.60904776119403 -3.4296492537313434 -2.8992597014925376
H 1.9825477611940296 -3.869549253731343 -2.119359701492538
H 2.06294776119403 -3.373349253731343 -3.845759701492538
H 3.5215477611940305 -4.019849253731343 -3.0234597014925377
C 3.7281477611940304 -2.060049253731343 -1.156659701492538
H 3.9048477611940298 -1.032549253731343 -0.8295597014925382
H 3.12924776119403 -2.623249253731343 -0.4404597014925382
H 4.68244776119403 -2.5769492537313434 -1.3005597014925383
C 3.1110477611940297 3.755250746268656 2.588740298507462
H 3.40124776119403 4.809350746268656 2.534540298507462
H 2.9823477611940303 3.461750746268656 3.634840298507462
H 3.86514776119403 3.1392507462686563 2.091540298507462
C 1.99744776119403 3.9574507462686572 0.40494029850746194
H 2.67914776119403 3.230350746268657 -0.04295970149253803
H 1.03214776119403 3.981150746268657 -0.10175970149253821
H 2.4399477611940297 4.958250746268657 0.368240298507462
C 0.7418477611940297 4.4992507462686575 2.475440298507462
H -0.18475223880597014 4.424250746268656 1.901240298507462
H 0.57844776119403 4.189650746268656 3.511940298507462
H 1.1210477611940297 5.524350746268658 2.4432402985074617
N 3.00114776119403 -2.025349253731343 -2.490159701492538
N 1.7831477611940298 3.586450746268657 1.862540298507462
C -3.55075223880597 -3.8435492537313434 0.6444402985074619
H -2.62515223880597 -2.2736492537313433 1.7424402985074618
H -4.67195223880597 -1.3478492537313436 1.5102402985074619
H -4.83415223880597 -1.6757492537313432 -0.1945597014925382
H -3.7169522388059697 0.17335074626865676 -0.900559701492538
H -3.9132522388059705 -4.043149253731343 -0.34225970149253815
H -4.35435223880597 -3.9354492537313432 1.3449402985074619
H -2.78115223880597 -4.545049253731343 0.8904402985074619
H -5.24235223880597 1.138950746268657 1.5249402985074618
H -5.92805223880597 0.6501507462686567 -0.006059701492538094
H -4.89895223880597 2.059650746268657 0.08004029850746197
C 3.438592443125313 -2.3165474733862874 2.1205192739775676
O 2.4474488323382646 -2.7194292470183528 1.5313706357960875
O 3.4275035213135516 -1.5674703165139974 3.104080107360628
O 4.606096853307854 -2.595573434901975 1.8243329316108683
O -2.596893984489506 2.8296698936068068 7.254319729870052
H -2.53944756061568 2.5105030906812713 8.167446127032242
H -3.3734776929824974 2.3744214879343124 6.895671466057269
O 0.5552038973253308 -6.334234935155096 1.0330026953659226
H 1.3223119328443564 -6.3672302370562806 0.4418817865878688
H 0.7560275031103867 -6.993580362779821 1.7141013891907275
O -8.377842492463062 -5.0064846252667525 -3.2264363754911343
H -8.334996548311594 -4.9870495555671175 -2.258575920655035
H -7.571304458898572 -4.547706807321511 -3.5056876216393404
O 5.762660481735124 2.531351061721261 0.08147059519887467
H 6.617975460624178 2.8454628718135173 -0.2482829711936414
H 5.667249471257937 2.9704008018861687 0.9400123874494604
O -2.339259602069766 3.761429432908365 3.759137039980432
H -2.4549820942504996 4.02969931336404 4.683045548948597
H -2.3823662812716453 4.594638218768639 3.266321782836914
O -8.356533375696912 3.473543997872275 -3.917038871267448
H -8.761878291762514 2.6804346116058038 -4.298667430649203
H -9.104255626564669 4.0732728931844004 -3.774916979973543
O 6.750732919879384 7.253166091435604 0.13009552061187302
H 7.161855176206942 7.781950768639273 -0.5701420193749183
H 5.899824993717699 7.690289470717228 0.28450017332879773
O -0.12182133337911116 6.812831832945383 -1.6322643154171557
H -0.4485444507542007 6.27017309647019 -2.3655724751971023
H -0.08297066761365635 6.197365649222494 -0.884832748808436
O -6.73489399463114 -2.2963931003831806 -7.880746142312397
H -7.677534749518113 -2.5046391324769757 -7.964587386597708
H -6.713162332523668 -1.329439720973086 -7.821662801094716
O -0.8761808664132872 -2.571610756122036 -5.221435628730202
H -1.5413538470508397 -2.2114548150947124 -5.827075753616654
H -1.1451868740624875 -3.494619496780797 -5.100387800099678
O 0.5596140075293481 -4.109903240717706 6.621791726148808
H 0.5922428362311496 -4.099258348743957 7.5901869980870895
H 0.8310997973904621 -3.214832505211383 6.368600516499547
O -2.3948098073629724 3.2360761423400835 0.1754100078289722
H -2.543894391755412 3.9022862086911694 0.8630911047692735
H -1.4817847014636611 3.3931453410726466 -0.10862584749049692
O 9.341388643302377 1.8703509800203695 -0.9148134106450314
H 9.186065704374407 2.4329291378695386 -1.688342956204743
H 8.484570365794102 1.445648399610477 -0.7584417321961148
O -6.057583875242907 -5.3966345014650345 -1.4911489312960997
H -5.898058427261605 -4.449374273756518 -1.363802752130896
H -5.184640794485347 -5.753042358623857 -1.7145449057740585
O -1.7848349955360576 -7.398589770506915 -7.835282483512513
H -1.1851746851874236 -8.099626644031693 -8.131799213312341
H -2.0759964886074678 -7.694465549257815 -6.9597001328447
O 5.966352450507459 4.648897322218989 -7.477199806106106
H 6.128875803381707 4.755958175741256 -6.527941416459958
H 6.618122845416114 5.232680986380067 -7.893557741156325
O -5.043360978972567 -2.66789520317467 -5.409196801494553
H -4.275290559931156 -2.8880409431828484 -4.8609532046785
H -5.2834761432585005 -1.7725441092008665 -5.1269680455183915
O -5.864939781588824 7.222485894497921 -1.5728987079359253
H -5.74978057732489 7.284694074941542 -2.533021542191622
H -5.3354327215435635 6.4503249863289795 -1.323195384854439
O 4.363848047973623 -0.41165314565321554 -8.241807854986371
H 3.41032197578214 -0.24044719346407073 -8.22073871912152
H 4.7051588036409315 0.06996052240959583 -7.473356693818081
O 8.965305696414223 0.2624875972870706 3.2133417985680026
H 9.057085731446804 -0.5149730893901765 2.6422913080325663
H 9.136043926038878 1.0097658310961295 2.620563895369974
C 2.5326726646884343 7.2515907374995106 -0.0009743466002789802
O 2.210238054758124 7.255991772095749 1.1517766284648354
O 2.8551072746187445 7.247189702903272 -1.1537253216653933
O 12.367075635306808 -1.8531051972467738 -1.4002759877426973
H 12.381775797105798 -1.8474696783470286 -0.43140060717519874
H 12.23708476424619 -2.786205580252818 -1.6269651868124266
O -1.1131750554213165 7.8029680323317185 -13.100327324118336
H -0.9147848049031051 7.920516851327751 -14.041491996506734
H -0.8115770647713374 6.902352015442158 -12.908256018458491
O -5.400408553767059 -5.973044429545321 1.4064799483302228
H -5.3477996770682426 -5.819793569188308 2.3618405277934564
H -6.196095321672702 -6.515718561232817 1.299946862027928
O -1.1262787775920413 14.534026665076722 5.032942462479484
H -1.1198861457656206 13.660914713988005 4.612702040786868
H -1.689074732541089 14.41439640000745 5.812629102785989
O 3.389974974400279 7.3815620525967764 10.312460884123677
H 3.409263048608091 7.4831511455233874 11.275931165601888
H 4.092796771624731 7.971367451663442 10.000799117334742
O -3.027933021932631 20.019657525869405 10.958625779642025
H -3.5090517636201106 19.815697202057958 11.774648021745623
H -2.122712499067334 19.725913763421623 11.140978052198461
O 7.048789357900628 19.03471196407763 1.0655955373363506
H 6.534267503003184 19.353152295145815 0.308739954492383
H 7.268010683782626 19.841408624986606 1.555640894274716
O -0.4987799627312013 -10.629103268950049 6.273967410133538
H -0.7766236529604997 -10.100173588542809 7.036859036699238
H 0.1180064285467628 -10.050913825537299 5.800434455250394
O 0.6796886371124802 6.049012938756879 6.248922358293187
H 1.0817190920471638 6.549036960580465 5.5227578811914935
H -0.2723765818390076 6.178387561995066 6.123240338796238
O -16.531492122467736 -2.7057237002744605 -0.31733097212755673
H -16.54381522136041 -2.585855808454534 0.6441507940252544
H -17.46866852504377 -2.7240769832102325 -0.5629434550353251
O -4.478858181495724 0.8810377524916281 18.126718769596565
H -4.301813399611417 0.26411628123867303 17.400750174948953
H -3.8285898045177005 0.6392228599697515 18.8032086364512
O -13.510524681981067 -10.550392871133017 -3.534062520523717
H -12.82410845964803 -11.03102276154075 -4.020678421481234
H -14.075517577953578 -11.250291934629217 -3.1736651388493557
O 4.485341089601855 -6.393357463407625 -1.6031491316563073
H 4.033220144326365 -6.6796594014473785 -2.4109765934437117
H 4.992870232048754 -7.172426250078448 -1.3303342869312311
O 10.257257951712486 -12.613931938627061 -6.490162697731562
H 10.27919390097552 -12.307715996312456 -5.571077300337876
H 9.426949496149593 -12.25433907928201 -6.836923117083037
O 6.138379904663204 4.445131359773042 7.01848873740164
H 5.563868158922139 5.223696194635749 7.0708376516288
H 5.925246623976256 4.054423453820773 6.157742850864846
O 2.198650280394287 -5.742672965195426 -11.058483725597895
H 2.2615721987162516 -5.239948147407203 -10.232483757877263
H 1.8150365705348963 -5.112908265249203 -11.68713218746634
O 11.9419238257122 10.354441773427936 -5.098269221172572
H 11.642773934642523 10.249312961672356 -6.013924523408003
H 11.53298515407082 9.610210197711426 -4.6315246777200505
O 4.181424174251741 4.736716744242466 -9.740192221397582
H 4.831195997737131 5.168489150233235 -10.3149413177252
H 4.573435619226404 3.8705233327935513 -9.55311484363275
O -0.014865945250043852 -0.4500825320562382 10.08206243126809
H -0.5694069022677163 -0.2516164419162512 9.312606197974427
H -0.48270742694675994 -1.1722081713050603 10.527731426648407
O 0.0832984898039788 13.334277294016498 -4.577196582827774
H -0.21955761689096676 12.756171196704567 -5.293463904285586
H 0.12360695845041914 14.211921127572031 -4.98594891991874