194

C -5.0710522388059704 1.0783507462686561 0.47044029850746183
C -3.8153522388059704 0.1782507462686569 0.19534029850746193
C -4.11845223880597 -1.3219492537313435 0.5608402985074619
C -2.96945223880597 -2.3874492537313436 0.7034402985074619
C -2.52015223880597 0.7359507462686565 0.7384402985074618
C -2.20305223880597 0.7852507462686571 2.097440298507462
C -1.5755522388059702 1.205650746268656 -0.18965970149253808
C -0.9533522388059701 1.2695507462686564 2.508640298507462
H -2.91125223880597 0.4298507462686567 2.840840298507462
C -0.32655223880597006 1.6562507462686575 0.21554029850746192
H -1.7850522388059702 1.178550746268657 -1.2573597014925382
C 0.004447761194029898 1.6956507462686563 1.569740298507462
H -0.7158522388059702 1.2676507462686573 3.5705402985074617
H 0.3943477611940298 1.9193507462686572 -0.5551597014925382
C -1.76045223880597 -2.1592492537313435 -0.1734597014925381
C -0.5287522388059701 -1.936549253731343 0.464840298507462
C -1.8068522388059702 -2.121249253731343 -1.5681597014925381
C 0.6114477611940299 -1.614449253731343 -0.2582597014925381
H -0.4544522388059702 -1.954049253731343 1.5506402985074619
C -0.6479522388059701 -1.8270492537313432 -2.2998597014925384
H -2.74345223880597 -2.290549253731343 -2.092259701492538
C 0.5698477611940298 -1.5506492537313434 -1.6506597014925382
H 1.5072477611940298 -1.351949253731343 0.2991402985074618
H -0.7173522388059701 -1.7640492537313435 -3.3840597014925375
C 1.7791477611940298 -1.082849253731343 -2.4255597014925376
H 1.4739477611940297 -0.9102492537313429 -3.464259701492538
H 2.1252477611940295 -0.1337492537313434 -2.0010597014925384
C 1.3965477611940298 2.0964507462686566 1.997440298507462
H 1.51704776119403 1.8448507462686567 3.057640298507462
H 2.1256477611940294 1.5207507462686571 1.4165402985074618
C 3.94864776119403 -1.4275492537313434 -3.522959701492538
H 4.81734776119403 -2.087049253731343 -3.615159701492538
H 3.4305477611940303 -1.3641492537313429 -4.484459701492538
H 4.26984776119403 -0.441449253731343 -3.176459701492538
C 2.60904776119403 -3.4296492537313434 -2.8992597014925376
H 1.9825477611940296 -3.869549253731343 -2.119359701492538
H 2.06294776119403 -3.373349253731343 -3.845759701492538
H 3.5215477611940305 -4.019849253731343 -3.0234597014925377
C 3.7281477611940304 -2.060049253731343 -1.156659701492538
H 3.9048477611940298 -1.032549253731343 -0.8295597014925382
H 3.12924776119403 -2.623249253731343 -0.4404597014925382
H 4.68244776119403 -2.5769492537313434 -1.3005597014925383
C 3.1110477611940297 3.755250746268656 2.588740298507462
H 3.40124776119403 4.809350746268656 2.534540298507462
H 2.9823477611940303 3.461750746268656 3.634840298507462
H 3.86514776119403 3.1392507462686563 2.091540298507462
C 1.99744776119403 3.9574507462686572 0.40494029850746194
H 2.67914776119403 3.230350746268657 -0.04295970149253803
H 1.03214776119403 3.981150746268657 -0.10175970149253821
H 2.4399477611940297 4.958250746268657 0.368240298507462
C 0.7418477611940297 4.4992507462686575 2.475440298507462
H -0.18475223880597014 4.424250746268656 1.901240298507462
H 0.57844776119403 4.189650746268656 3.511940298507462
H 1.1210477611940297 5.524350746268658 2.4432402985074617
N 3.00114776119403 -2.025349253731343 -2.490159701492538
N 1.7831477611940298 3.586450746268657 1.862540298507462
C -3.55075223880597 -3.8435492537313434 0.6444402985074619
H -2.62515223880597 -2.2736492537313433 1.7424402985074618
H -4.67195223880597 -1.3478492537313436 1.5102402985074619
H -4.83415223880597 -1.6757492537313432 -0.1945597014925382
H -3.7169522388059697 0.17335074626865676 -0.900559701492538
H -3.9132522388059705 -4.043149253731343 -0.34225970149253815
H -4.35435223880597 -3.9354492537313432 1.3449402985074619
H -2.78115223880597 -4.545049253731343 0.8904402985074619
H -5.24235223880597 1.138950746268657 1.5249402985074618
H -5.92805223880597 0.6501507462686567 -0.006059701492538094
H -4.89895223880597 2.059650746268657 0.08004029850746197
C 1.0325286480250038 -4.165103481050565 1.8441623466575208
O -0.15713767693508385 -4.045433497097419 1.5948660795442482
O 1.4978034181763213 -4.648179823701861 2.882809591650394
O 1.9552887610693541 -3.821645133378281 1.0963665713360746
O 3.6847798204221585 1.9249276173936152 5.616896191502573
H 4.327335838921093 1.94243709125089 6.342004830477476
H 3.7610674691851447 1.0280131408789526 5.258167100453848
O 0.9908430718025187 6.277764085529389 -1.3837965566306165
H 0.9186250046132651 5.958290297419058 -0.47182703609723564
H 0.3539520947306487 5.735450733310863 -1.8729060082157833
O -0.1667017978377745 -6.791310464056607 -3.5557424224350127
H 0.5901638958490834 -6.492709194495726 -4.082011327498329
H -0.9295246817975931 -6.37811568443781 -3.9874057937129086
O 6.830058973489084 -6.562836378817629 0.8006817304690514
H 6.511898979190379 -5.9807606688331525 1.5070311077420233
H 6.218828626761912 -6.3966944727612525 0.06736305854549052
O -6.027342863746259 -1.498545162950168 -6.6781318655811335
H -5.3593225333814605 -1.7186707312805631 -6.011602849493666
H -6.0896631880704275 -0.5324310323149444 -6.636881313305148
O -6.305248612769158 -4.509472727283843 -2.2740127095145284
H -5.811246693255323 -5.050851077228155 -1.6401050327758557
H -6.002372405264621 -4.826141896353853 -3.138274582206005
O -1.7949831891674841 -6.232726785709423 -0.25423804190333277
H -1.2088359779665532 -5.621349396968737 0.2165235668096045
H -2.3739290128763804 -6.5828003488839935 0.4394709589581861
O -4.270093757946718 8.362560993776029 -4.53812050747494
H -5.212229516415442 8.189916045738983 -4.684890025535916
H -3.868922158375418 7.480537818616488 -4.530477832623318
O 4.9300829642064885 5.812643847775613 1.4795939583553686
H 5.370315612673222 4.950653917999332 1.4333778022165664
H 5.281109415129543 6.211589776751733 2.289892990074983
O 7.3495288352879795 -3.4452151492588596 3.5455657693188463
H 6.774193156006706 -3.6417920192370734 2.7910369446636687
H 6.735891642119062 -3.3513855890300555 4.2896137201170745
O 3.040887150242006 -1.1678996502759738 9.52451436538137
H 2.9592129483514737 -0.3844117895215069 10.088822307639791
H 2.570491758327311 -0.9224200312722326 8.713693869698634
O 5.7570341632894975 2.2309052814533943 0.11268281980282957
H 5.045236397188784 1.761568072606493 -0.34778854897685285
H 5.291018708360771 2.8480761081006447 0.6965421443007092
O -1.1895337194424886 4.36507538273238 -8.916744431126055
H -1.4658344972815684 4.005193748574625 -9.772963121917996
H -1.941821895552001 4.184633645762029 -8.333250451769846
O 1.098123014993984 -7.103573841633848 1.1536619971668247
H 1.433038899862936 -6.479268150144768 0.492571148238488
H 1.3986000955076912 -7.967307559843107 0.8332879463849807
O -2.6375463074046555 4.372068533145926 -5.336727246270171
H -3.2082574744381764 4.980388294649898 -4.843570893287682
H -2.984569537390136 3.4946879431902005 -5.115955593834026
O -0.9225237888261373 -4.322472860316365 -6.70741055705226
H -0.5088049843723943 -4.96883980674919 -6.115790849553877
H -1.0998645359492614 -3.5610688873112033 -6.13489313932441
O -4.614914724598292 0.37128406639826217 12.0524111713536
H -4.284096663497482 -0.05863642545174841 12.85534027036356
H -5.278798320338869 0.9972268912171982 12.378625971238971
O -1.7305748728266315 -0.3963275147714431 6.706138476094418
H -1.4102869369006292 0.23065710435366027 6.040350760391573
H -1.6042625864853328 -1.2629498451778367 6.291442337867613
O -4.993027725508142 1.1267519432020532 -8.462474165836007
H -4.896487459765805 0.9244226098797954 -9.405188425231593
H -4.080851269121833 1.17970666601469 -8.139841473682296
O -7.228976244328709 -2.3735241526295465 7.495108429666634
H -7.231476681681701 -2.3605909474637383 8.464022170366592
H -6.680832887705794 -1.6122515171933507 7.252281784863818
C 11.089324843307622 -22.340556383255752 1.7106767684664632
O 10.845030873389035 -21.662303186510904 2.6662453503415744
O 11.33361881322621 -23.0188095800006 0.7551081865913547
O -3.4117215632461244 13.981693427923998 14.163291861207245
H -3.333545548842544 14.02703310252191 13.198511999487833
H -4.16456877877198 14.557647556110151 14.364438217376811
O -0.37066228393193423 -8.69414133894396 6.047187831246897
H -0.41645864947962774 -7.783456943136679 5.719279336334442
H 0.410759374398292 -8.697572545424105 6.6201890206126155
O -11.393463015931587 7.228803041534761 2.839122853031899
H -10.842929425951487 7.989290512143204 2.5992501154163126
H -11.478776348235034 6.731409846787981 2.0119084978307376
O 13.029875906509133 -12.262333096427087 4.0008647869203715
H 13.774029558617716 -12.531803782429941 3.441768866403499
H 13.452286952721034 -11.86759896812497 4.778499547133506
O 13.440619370315579 -13.613882122372617 -0.8394220137007049
H 13.348651447088194 -13.259390260808189 0.05770940258223245
H 13.069864029842025 -12.919559107572967 -1.4045927604046202
O -10.245176592794941 6.877193136441079 -14.157712007825
H -9.27712727117226 6.8660780719489605 -14.199236977989981
H -10.480893630128856 5.961477561320687 -13.945899807769262
O -5.8765054862230315 10.118701581689443 4.192560043825723
H -5.765634542625889 9.930342984458294 3.2485282490142366
H -5.6520048887375856 9.281719251344125 4.626175085906139
O 7.528805611599722 2.128854507246672 -12.14441913114955
H 8.468643152489998 2.2075604345558366 -11.921982329698604
H 7.374652782968782 1.1726638180329685 -12.174389376161951
O 18.64238854899503 8.493329940002972 8.22605862702136
H 18.23964364692037 9.349790232701608 8.43400012788985
H 18.319951312490147 7.906773136005478 8.926734934954872
O 17.250555184904226 0.696871315597309 7.531781174820654
H 17.746322608504556 1.2037810770400306 8.19225412078496
H 17.93643875848524 0.3384305403311956 6.948646646243959
O 10.325104468572997 -2.883286669998416 7.812820692616366
H 9.414003066311254 -3.194991951844082 7.704647641599944
H 10.327367663176087 -2.013826632011738 7.385040299664103
O 3.605226991715762 -2.4809373206633154 -11.48930023249698
H 3.7485878532932837 -3.395142780920426 -11.776777878069357
H 3.8744412067791267 -1.9501676787302737 -12.254002290758944
O -12.5261136865663 -15.527371687305651 -3.9639352347702577
H -11.582640797605542 -15.405563280038713 -3.7795742393966707
H -12.861119072825641 -14.625045254115822 -4.0759189096704525
O 17.109842719906602 -3.9330527779137014 14.482164988800838
H 16.379801958604432 -4.55407488289708 14.624781218099486
H 16.74001856613513 -3.2718373673257037 13.878024094316647
O 2.646442329871773 6.9966058408393215 -21.581690260942036
H 2.067885514256255 7.101812928460703 -22.35186610886189
H 3.1717681919661747 7.8107753938201405 -21.570616782997572
O 12.512636511845535 -1.390546337016353 8.6730878713227
H 13.391716429224129 -1.0126684237708732 8.82603929643173
H 12.600347058331634 -2.3114935512148733 8.961401993410217
O -6.479589382375565 6.0677699473586095 7.914170884246097
H -5.5764448564084494 6.369994043298679 7.735403107650751
H -6.397574477372635 5.103714194186706 7.967387464684088
O -5.898864964591107 -11.365178371308374 -3.25004885109568
H -5.635861996732844 -10.943464545355027 -4.081886722797574
H -6.070506732745809 -10.620574267457872 -2.6541748910557064
O -9.46262222884096 -6.835582902104907 -2.8898809247684345
H -9.608470217064966 -7.7810862672123875 -3.043891014702303
H -9.07799969012438 -6.799790999648791 -2.001204163099839
O -8.307210192157513 -6.887839712119611 -6.020046046898104
H -9.033736096418437 -6.352414776992871 -6.372817369687207
H -7.557427653269695 -6.672858094738448 -6.594999082255877