194

C -5.0710522388059704 1.0783507462686561 0.47044029850746183
C -3.8153522388059704 0.1782507462686569 0.19534029850746193
C -4.11845223880597 -1.3219492537313435 0.5608402985074619
C -2.96945223880597 -2.3874492537313436 0.7034402985074619
C -2.52015223880597 0.7359507462686565 0.7384402985074618
C -2.20305223880597 0.7852507462686571 2.097440298507462
C -1.5755522388059702 1.205650746268656 -0.18965970149253808
C -0.9533522388059701 1.2695507462686564 2.508640298507462
H -2.91125223880597 0.4298507462686567 2.840840298507462
C -0.32655223880597006 1.6562507462686575 0.21554029850746192
H -1.7850522388059702 1.178550746268657 -1.2573597014925382
C 0.004447761194029898 1.6956507462686563 1.569740298507462
H -0.7158522388059702 1.2676507462686573 3.5705402985074617
H 0.3943477611940298 1.9193507462686572 -0.5551597014925382
C -1.76045223880597 -2.1592492537313435 -0.1734597014925381
C -0.5287522388059701 -1.936549253731343 0.464840298507462
C -1.8068522388059702 -2.121249253731343 -1.5681597014925381
C 0.6114477611940299 -1.614449253731343 -0.2582597014925381
H -0.4544522388059702 -1.954049253731343 1.5506402985074619
C -0.6479522388059701 -1.8270492537313432 -2.2998597014925384
H -2.74345223880597 -2.290549253731343 -2.092259701492538
C 0.5698477611940298 -1.5506492537313434 -1.6506597014925382
H 1.5072477611940298 -1.351949253731343 0.2991402985074618
H -0.7173522388059701 -1.7640492537313435 -3.3840597014925375
C 1.7791477611940298 -1.082849253731343 -2.4255597014925376
H 1.4739477611940297 -0.9102492537313429 -3.464259701492538
H 2.1252477611940295 -0.1337492537313434 -2.0010597014925384
C 1.3965477611940298 2.0964507462686566 1.997440298507462
H 1.51704776119403 1.8448507462686567 3.057640298507462
H 2.1256477611940294 1.5207507462686571 1.4165402985074618
C 3.94864776119403 -1.4275492537313434 -3.522959701492538
H 4.81734776119403 -2.087049253731343 -3.615159701492538
H 3.4305477611940303 -1.3641492537313429 -4.484459701492538
H 4.26984776119403 -0.441449253731343 -3.176459701492538
C 2.60904776119403 -3.4296492537313434 -2.8992597014925376
H 1.9825477611940296 -3.869549253731343 -2.119359701492538
H 2.06294776119403 -3.373349253731343 -3.845759701492538
H 3.5215477611940305 -4.019849253731343 -3.0234597014925377
C 3.7281477611940304 -2.060049253731343 -1.156659701492538
H 3.9048477611940298 -1.032549253731343 -0.8295597014925382
H 3.12924776119403 -2.623249253731343 -0.4404597014925382
H 4.68244776119403 -2.5769492537313434 -1.3005597014925383
C 3.1110477611940297 3.755250746268656 2.588740298507462
H 3.40124776119403 4.809350746268656 2.534540298507462
H 2.9823477611940303 3.461750746268656 3.634840298507462
H 3.86514776119403 3.1392507462686563 2.091540298507462
C 1.99744776119403 3.9574507462686572 0.40494029850746194
H 2.67914776119403 3.230350746268657 -0.04295970149253803
H 1.03214776119403 3.981150746268657 -0.10175970149253821
H 2.4399477611940297 4.958250746268657 0.368240298507462
C 0.7418477611940297 4.4992507462686575 2.475440298507462
H -0.18475223880597014 4.424250746268656 1.901240298507462
H 0.57844776119403 4.189650746268656 3.511940298507462
H 1.1210477611940297 5.524350746268658 2.4432402985074617
N 3.00114776119403 -2.025349253731343 -2.490159701492538
N 1.7831477611940298 3.586450746268657 1.862540298507462
C -3.55075223880597 -3.8435492537313434 0.6444402985074619
H -2.62515223880597 -2.2736492537313433 1.7424402985074618
H -4.67195223880597 -1.3478492537313436 1.5102402985074619
H -4.83415223880597 -1.6757492537313432 -0.1945597014925382
H -3.7169522388059697 0.17335074626865676 -0.900559701492538
H -3.9132522388059705 -4.043149253731343 -0.34225970149253815
H -4.35435223880597 -3.9354492537313432 1.3449402985074619
H -2.78115223880597 -4.545049253731343 0.8904402985074619
H -5.24235223880597 1.138950746268657 1.5249402985074618
H -5.92805223880597 0.6501507462686567 -0.006059701492538094
H -4.89895223880597 2.059650746268657 0.08004029850746197
C -2.2186505851999914 0.6869858609668194 -3.7191514066120868
O -1.7310855440426454 0.40009940383935305 -4.8016263439469355
O -2.6911732039229967 1.7897244218319754 -3.4202843704970327
O -2.314987120031021 -0.0810438315910682 -2.7550466157277214
O 4.941241276304948 -8.894550080711563 -4.412619591697426
H 5.069726606046101 -8.474218540903035 -3.5490338845533693
H 5.718664105662116 -8.622749771332723 -4.923207762845034
O -4.4116556422400155 0.4376639773868152 6.711246994449013
H -4.805350686702984 0.31064192035357063 7.587510063334347
H -5.068952437715854 0.06698157092374263 6.103367548756087
O -7.506561684507821 -3.2999861931680963 -6.525723532162811
H -7.599393621891987 -3.792453905042061 -5.6963712903119035
H -6.976492047781293 -3.885242105911045 -7.087385032641545
O -2.0827938060519235 -6.023351305476373 -1.6075510864662814
H -2.5282167373602196 -5.889148358100718 -0.757518535277556
H -2.630815052842334 -5.533403563126873 -2.238887658456937
O 3.5592519728442404 -4.711591285179809 2.6243407626551045
H 3.5657983128091733 -4.78007429502573 3.5908988724940873
H 4.4866394402751455 -4.839695189711496 2.3743331243801338
O -7.450810015455442 -5.853682365726743 -4.5242440648222955
H -7.567661599492882 -5.955704354502593 -5.480750509136269
H -8.286301996558043 -5.463322969277258 -4.22669636206382
O -6.363353178512418 6.04299242928714 -6.263031505727769
H -6.360209470220247 5.998101858887335 -5.295073701540337
H -6.21663013388565 5.126185018209758 -6.540337227754989
O -7.1777380638240915 6.090738502923134 6.745218473811767
H -8.130668844896036 6.066686540387298 6.571115669458147
H -7.008020741403066 5.2704339570779455 7.232310279158517
O -5.285190185915123 -6.6591433864209035 -1.521845001230732
H -4.945510016123792 -6.842887718275567 -0.6331252705721758
H -5.114857417513982 -7.477841944438212 -2.0114176346664507
O 8.901059187592237 1.9181850341433135 7.140605226245153
H 8.368113730071544 2.704320005990054 6.9484378454346025
H 9.38785157193256 2.1560734775083867 7.943975755553769
O -0.9401963771065855 1.0796165356159837 -7.476737951259981
H -0.8483080698752232 0.7656536910276395 -8.388851556087882
H -0.7296351215680599 0.30148407650258235 -6.939024479195008
O -7.795488722715386 3.314571463425348 2.9713728147958873
H -7.070533881008254 2.6967072492927127 3.1492819131569627
H -8.03875380936486 3.1313413970323096 2.0514756549529913
O 4.928182381700928 2.2290263447786813 -6.34193120825875
H 4.866023300827877 1.9269661653757675 -5.423310909340802
H 5.876876894979649 2.3724451617593525 -6.477473481040024
O -5.221006417642298 2.27293857566464 4.8168129541054405
H -5.742438078792772 1.5772590932829282 4.388903574162709
H -5.483397490141291 2.2226973200934355 5.748257362329278
O 7.101412274980067 5.864027976055634 -1.7256837524424173
H 7.117174025763149 5.957596424369594 -0.7613374092687779
H 6.867104592208337 6.749138835645969 -2.0429228110865254
O 6.614232149201614 3.278756488187465 -9.496403553501057
H 6.712267118176785 3.458772885917301 -8.549328794938454
H 6.581026180726521 4.15917588323759 -9.89979046054838
O -3.8032552538794633 5.810207432978349 -4.0628992779679525
H -3.9381530764291317 5.837328651952358 -3.10371505486338
H -4.3448643824425 5.0614239194037065 -4.354352097401902
O -4.894133785287144 0.5037054929228506 -10.06739821162456
H -4.617458576763605 0.8485684633294861 -10.92965554997012
H -5.240226878397168 1.2813905318447336 -9.604378238579546
O 0.6742837657247807 -3.764824364653774 4.869973003679496
H 0.6718492866331248 -3.7081267468937864 3.902632934028758
H 1.2416706502646955 -4.527427824590798 5.0583078927578855
O 1.3755348890541512 3.0469421071193388 -5.3752834698741605
H 1.387412697991917 2.0790980646599944 -5.329412084122315
H 2.2199269360180476 3.310396230082341 -4.979611964180467
C 10.60990926180904 -0.14505522309499908 9.132840983967235
O 9.497910963998063 -0.4418178649789146 9.461793833700398
O 11.721907559620018 0.15170741878891691 8.803888134234072
O -4.272003354652585 -11.123446488447136 -11.374804190540361
H -5.106012597188391 -11.54291599247469 -11.634498771646186
H -4.406155692547567 -10.186765415859936 -11.583595145311397
O 17.582644508893704 -1.981292579332858 5.748855243054493
H 17.7073555074289 -2.0400146765843603 6.708003948437938
H 16.779636154704406 -1.448135207308324 5.649443251533899
O 17.19077512116083 -4.471122902872777 1.306836716807232
H 17.51738231929038 -5.00301146234316 0.5656284766112094
H 16.70797629341652 -3.747138544757265 0.8805575999919757
O -6.441375666285915 -1.599986034081531 -4.473806995520501
H -6.42106311323793 -1.4311135553548566 -5.427765507730221
H -7.262612462444868 -1.1785738337692266 -4.178944610054806
O -7.467550583891352 9.329360076535366 -10.6687625175564
H -6.8620128193112615 9.165018968942826 -9.930329465125375
H -7.0439805557661055 8.889494167561022 -11.421137661813672
O 0.5329806007871767 9.442638191856545 -2.502673332030058
H 0.5039516606371439 10.165635691021865 -3.1471881058983207
H -0.37401911454099945 9.10174761126082 -2.492325735414693
O -17.516447106912047 -6.903744316032842 4.7998784692505065
H -16.80657415802118 -7.160802296830342 5.407306611372104
H -17.712961965591095 -7.717453621534265 4.3117995609183115
O -7.358395644383592 4.8574234535292575 -21.560652179772568
H -6.968084792799792 5.419051698895648 -20.874213172982742
H -7.372972720375846 5.424187428834809 -22.346481709283495
O -13.119577332012943 7.294128296452458 -8.733569402457096
H -13.810793708070028 7.1409039213752825 -8.07197317419342
H -13.472019462382693 6.886623010804293 -9.538979814116416
O 0.8314343539092944 8.849601264636508 -13.337528476273048
H 1.7942834123810854 8.752422235039655 -13.288078666297672
H 0.49866006145106956 7.947505894947849 -13.217332142863043
O -7.680787712604748 -16.874917991960725 0.39553469524766083
H -7.61182828195456 -15.965158569218227 0.7219542819082125
H -7.046324674836615 -17.366960055684974 0.9380411058383693
O -9.420133505016668 11.720325215739123 -5.13092256827332
H -9.8616763486381 11.751383281849595 -4.268923339343167
H -8.992744682825219 12.586705360679893 -5.206329354560837
O 8.290336402511114 -5.322024309202673 0.20652135184042608
H 8.2660750410295 -5.481518106876981 1.1620005361989794
H 8.954696029362442 -4.624339675704957 0.10248105824643616
O 16.553791772183406 -8.179631158832114 6.09253123794209
H 15.70128776303536 -7.958594792561975 6.49669357670289
H 16.408235697968323 -8.035377948957228 5.1454481449666725
O 1.7324125382142523 -9.454288905917105 -2.9130590274718458
H 1.4647186053356274 -9.724749944832078 -2.021903518242952
H 0.9947948834154503 -8.907805306030491 -3.223281229585239
O 9.740536614697001 15.75491767525584 11.886442991364968
H 9.558499902063984 15.925585404031212 12.822766930238913
H 10.1511489454136 14.87721976411133 11.884027430136697
O 13.667114845179967 -10.33009383545066 -2.033330103407594
H 13.440998087744994 -9.561876515722556 -1.4877288583788946
H 13.593178639552027 -10.0017373272554 -2.941998021474013
O -10.9584715688464 -0.6043230709230882 2.781142328381087
H -10.80967768887272 -1.5360974254926252 2.5606331667825235
H -11.739174674473842 -0.6213606381237993 3.3548794863790223
O -18.856885798187115 -10.508762603546899 -2.4945122475281374
H -19.13515434337334 -11.000615405928944 -1.7073561039016836
H -19.624134178666015 -10.557543147661601 -3.0843531798720814
O 5.8004825403090505 15.057712355879843 -1.1733367194165263
H 6.331629865616443 15.681690102487945 -0.6561311051230598
H 5.9075737305383145 15.360785394109474 -2.0874702735395214