194

C -5.0710522388059704 1.0783507462686561 0.47044029850746183
C -3.8153522388059704 0.1782507462686569 0.19534029850746193
C -4.11845223880597 -1.3219492537313435 0.5608402985074619
C -2.96945223880597 -2.3874492537313436 0.7034402985074619
C -2.52015223880597 0.7359507462686565 0.7384402985074618
C -2.20305223880597 0.7852507462686571 2.097440298507462
C -1.5755522388059702 1.205650746268656 -0.18965970149253808
C -0.9533522388059701 1.2695507462686564 2.508640298507462
H -2.91125223880597 0.4298507462686567 2.840840298507462
C -0.32655223880597006 1.6562507462686575 0.21554029850746192
H -1.7850522388059702 1.178550746268657 -1.2573597014925382
C 0.004447761194029898 1.6956507462686563 1.569740298507462
H -0.7158522388059702 1.2676507462686573 3.5705402985074617
H 0.3943477611940298 1.9193507462686572 -0.5551597014925382
C -1.76045223880597 -2.1592492537313435 -0.1734597014925381
C -0.5287522388059701 -1.936549253731343 0.464840298507462
C -1.8068522388059702 -2.121249253731343 -1.5681597014925381
C 0.6114477611940299 -1.614449253731343 -0.2582597014925381
H -0.4544522388059702 -1.954049253731343 1.5506402985074619
C -0.6479522388059701 -1.8270492537313432 -2.2998597014925384
H -2.74345223880597 -2.290549253731343 -2.092259701492538
C 0.5698477611940298 -1.5506492537313434 -1.6506597014925382
H 1.5072477611940298 -1.351949253731343 0.2991402985074618
H -0.7173522388059701 -1.7640492537313435 -3.3840597014925375
C 1.7791477611940298 -1.082849253731343 -2.4255597014925376
H 1.4739477611940297 -0.9102492537313429 -3.464259701492538
H 2.1252477611940295 -0.1337492537313434 -2.0010597014925384
C 1.3965477611940298 2.0964507462686566 1.997440298507462
H 1.51704776119403 1.8448507462686567 3.057640298507462
H 2.1256477611940294 1.5207507462686571 1.4165402985074618
C 3.94864776119403 -1.4275492537313434 -3.522959701492538
H 4.81734776119403 -2.087049253731343 -3.615159701492538
H 3.4305477611940303 -1.3641492537313429 -4.484459701492538
H 4.26984776119403 -0.441449253731343 -3.176459701492538
C 2.60904776119403 -3.4296492537313434 -2.8992597014925376
H 1.9825477611940296 -3.869549253731343 -2.119359701492538
H 2.06294776119403 -3.373349253731343 -3.845759701492538
H 3.5215477611940305 -4.019849253731343 -3.0234597014925377
C 3.7281477611940304 -2.060049253731343 -1.156659701492538
H 3.9048477611940298 -1.032549253731343 -0.8295597014925382
H 3.12924776119403 -2.623249253731343 -0.4404597014925382
H 4.68244776119403 -2.5769492537313434 -1.3005597014925383
C 3.1110477611940297 3.755250746268656 2.588740298507462
H 3.40124776119403 4.809350746268656 2.534540298507462
H 2.9823477611940303 3.461750746268656 3.634840298507462
H 3.86514776119403 3.1392507462686563 2.091540298507462
C 1.99744776119403 3.9574507462686572 0.40494029850746194
H 2.67914776119403 3.230350746268657 -0.04295970149253803
H 1.03214776119403 3.981150746268657 -0.10175970149253821
H 2.4399477611940297 4.958250746268657 0.368240298507462
C 0.7418477611940297 4.4992507462686575 2.475440298507462
H -0.18475223880597014 4.424250746268656 1.901240298507462
H 0.57844776119403 4.189650746268656 3.511940298507462
H 1.1210477611940297 5.524350746268658 2.4432402985074617
N 3.00114776119403 -2.025349253731343 -2.490159701492538
N 1.7831477611940298 3.586450746268657 1.862540298507462
C -3.55075223880597 -3.8435492537313434 0.6444402985074619
H -2.62515223880597 -2.2736492537313433 1.7424402985074618
H -4.67195223880597 -1.3478492537313436 1.5102402985074619
H -4.83415223880597 -1.6757492537313432 -0.1945597014925382
H -3.7169522388059697 0.17335074626865676 -0.900559701492538
H -3.9132522388059705 -4.043149253731343 -0.34225970149253815
H -4.35435223880597 -3.9354492537313432 1.3449402985074619
H -2.78115223880597 -4.545049253731343 0.8904402985074619
H -5.24235223880597 1.138950746268657 1.5249402985074618
H -5.92805223880597 0.6501507462686567 -0.006059701492538094
H -4.89895223880597 2.059650746268657 0.08004029850746197
C 3.4890662495174474 -1.0970647337888528 2.9686550581090247
O 3.362104582312264 -0.6035929035951725 4.078673880681768
O 3.300537261632315 -0.5048793091202327 1.8998217186041915
O 3.8257302199334084 -2.265015994073947 2.7423905911191304
O 7.505586092965705 0.6113597699191025 -1.974138153587208
H 7.4867629063577406 1.1930842801778558 -2.7488701322160347
H 7.666377663476603 1.2141440739682945 -1.2326807387988952
O -7.639628758276349 -0.3217355028415323 -7.53464200776914
H -7.160901406742931 -1.0476475214443806 -7.107044976626806
H -8.032170248976014 -0.7310045069715168 -8.320372244324751
O -0.19207452651053536 -6.024678547384751 0.8404407139067946
H 0.708754565389518 -6.013077847102441 1.1972876388472877
H -0.49836055495467746 -6.928702713008452 1.0074470642300235
O 4.452862551891524 2.752474536509226 6.21785470800084
H 4.00708211051095 2.877680592858866 7.069071835669164
H 4.337075538876749 3.60173879117085 5.765853007040377
O -0.4581674918823868 7.100082257213193 -2.951702216264322
H -0.43827871283245035 6.813168540662849 -3.8770412420398332
H 0.47108256216325817 7.073288431203879 -2.6783190195532813
O -5.937534239982419 2.493082294940455 5.605265319590317
H -5.868816890016286 2.492033789793362 4.638702241798397
H -6.358570262709991 3.34170365585175 5.8090603089075445
O 3.5379182484076317 8.310766427446602 2.871903086686914
H 3.322306845968649 8.755162630559807 3.705564345650568
H 2.6881322130564045 7.9577571938686615 2.56824189484516
O 8.069703081146162 -0.3672938489632207 6.050138749976322
H 7.355739647325949 0.19702404995518674 5.717319157662457
H 7.695966042298175 -0.7718421886235296 6.847398563946162
O -7.454068991455612 0.41180826566520534 -2.7751926490955836
H -7.943367541942564 0.9312232205115015 -2.1196299975714217
H -8.136988932055155 -0.12296247542421881 -3.207167826051604
O -0.18504359208435206 1.188871597123046 8.072439615417412
H -0.5273270077598409 0.8279114042930689 8.90401472293667
H -0.672517871448798 0.7049134841634308 7.3889812654364615
O 9.76456008269416 -3.218009586497095 0.6747040160789519
H 9.7914306759615 -3.1317243239192094 -0.2900758456404602
H 8.820527265584767 -3.3034737773620906 0.8758503722485196
O 4.237444283280467 9.26593896520519 -1.5991328449601339
H 3.758375953688019 9.367460812179079 -2.4352872607641247
H 4.608293392313588 10.145719179036881 -1.4335440229351992
O 6.491356883380053 4.97343044349109 4.6653260250127815
H 6.728455669711687 5.062404719049052 5.6006522251745245
H 6.381419614426205 4.018678877238384 4.541531081929568
O 1.2536891156307939 6.010720202262037 -6.208374269332701
H 1.2214186679600607 5.971690333302313 -5.240695270678644
H 0.6751777002033226 5.286656402163786 -6.491248976415857
O -5.448757902310856 -2.5734578201086182 -4.974027575326114
H -5.682681298382889 -2.792573482956785 -5.888486720375654
H -4.699289132190667 -1.9657716187305623 -5.063335959978617
O -1.7942065451633362 -6.975536452164111 -5.337897734857849
H -0.987313251035812 -6.804262010645674 -4.829414072903424
H -2.4948480990070605 -6.562299092982112 -4.8113065819662175
O 1.5033182342976468 -4.43785982994817 9.07454383974598
H 1.7618385782621253 -3.5123604047024983 8.949702330117084
H 2.323478778754942 -4.8750299518782825 9.348735214714491
O -3.209930026287781 2.515106483003281 -2.0910189116318625
H -3.1314939935001918 2.4668512637535445 -3.055636234447343
H -2.419467176936428 3.0034961352177945 -1.8160535034345282
O -4.876058979897696 5.696816090590605 -4.885715239811342
H -4.771380185283494 5.548105158053607 -5.837500281405344
H -4.108263053308537 5.25423656875823 -4.493829125911243
O -8.458235043233312 -0.5235078254507937 4.53454712844508
H -8.747069085744114 -1.3387658202323571 4.9714643456975205
H -9.188389891924121 -0.30788888565055617 3.935093782443305
C -3.4845588832654775 2.60505423499883 -19.85123527193636
O -3.075117370049811 1.7014152792831878 -19.181449826984917
O -3.894000396481144 3.5086931907144745 -20.521020716887808
O 5.2300535662194125 14.783871241536216 -4.567171512522652
H 4.97392260790877 14.180856151156984 -3.8532127673070757
H 4.8101147499044075 15.623325109536147 -4.326483876047671
O -10.495941002739231 11.29821471018481 9.98142933883847
H -10.519009062466848 11.363513149995885 9.01490394585666
H -10.194955538853526 10.392276397517781 10.147698603802032
O 4.901002327857269 -0.820875006683775 -7.951131904057266
H 5.171983109233979 -0.7357482058352582 -8.877571433007626
H 5.738308640308459 -0.8576979433219225 -7.464794413453537
O -15.870970686124544 1.4600369475660733 0.8901871012480509
H -15.803907117412965 2.081591721917899 1.6305515365987233
H -16.796769030367628 1.5265069867460923 0.6119046835710131
O -7.43832531831255 -1.133231096950872 13.05107027117566
H -7.212948177905001 -1.3366293969128353 13.971288524121286
H -7.854329148812127 -1.9461047560767852 12.726818560911967
O 4.077222648280287 16.633452177421102 0.11751150769139684
H 4.544760145410959 16.623258667351195 0.9661999888370074
H 4.786278899523288 16.582269246186787 -0.5409575382200122
O -20.676817384273516 0.8270332396405387 -4.269058876916399
H -21.338923091188562 0.12436777878482719 -4.186326538070216
H -20.683412023398343 1.0448541812064418 -5.213237087028323
O -8.202804957418222 6.600722144215215 7.579695870464267
H -8.680296887483475 7.116504073609256 6.912659278564604
H -8.325163915354569 7.105585148381406 8.397683386711929
O 17.720454990976755 -6.293331193384639 4.533932313101213
H 18.05708799969833 -5.992115535686151 5.391203974767646
H 18.370646526324553 -5.960599755087027 3.897141372815099
O 9.236375741431438 15.439517838670408 5.625070982288685
H 9.12221381088052 14.477266304730229 5.622541962189446
H 9.463234060165362 15.65071652971248 4.7069792872912135
O 4.33652321394799 -14.201684744524236 -8.806340233908118
H 4.512123344839735 -13.2509550807135 -8.741186129807737
H 3.7962174566560707 -14.393973433566703 -8.025278973184264
O 7.972229478534516 -8.77102134858549 -11.191481572795473
H 8.42002379590315 -8.892762724892732 -10.340819099468256
H 7.4969639883383 -9.604487388071956 -11.327198259872999
O 11.009745449573098 13.926519838702905 12.577466960181741
H 11.753081967091743 13.32367802906349 12.729124242149766
H 10.339576033671452 13.36971406253864 12.153436034516929
O 10.966589410231691 7.457653393580287 17.674301138053305
H 11.805355110337295 7.1350043740613 18.036705701255528
H 10.709093769264058 8.170000172820483 18.278635486976796
O 14.731504183342217 0.46242223125158555 3.0186202686314965
H 13.805954740684857 0.7421032199268831 2.954556779261463
H 15.202030357887072 1.0744536503503994 2.432971393106174
O 0.24814195839804576 0.21295002526638585 -10.846938861811006
H -0.3951788236504403 -0.47871532404841854 -10.630825991204567
H 0.5260471996003275 0.5523453180474858 -9.982912556395291
O -3.942861968235278 -10.028694064915719 6.040335504071429
H -4.565789895696257 -9.437060946904051 6.4885524245027755
H -3.2785758436950125 -9.429961439134775 5.667233464585275
O -2.5809374853460065 4.4468197849631155 13.229228258422365
H -1.8232915506170417 4.499937782799762 12.627465453993162
H -2.787869870016057 5.372513221945785 13.427300450317087
O 9.071151387399826 6.701718475424104 -3.428072364027804
H 9.710438147218897 7.243154108929551 -2.9411152299897125
H 9.62272081399549 6.083098249360003 -3.930110338537035
O 12.75364589106005 -16.913191377233446 -7.812138337602221
H 13.337044876280407 -16.98076321550822 -8.58288280084281
H 12.009671107511636 -17.494553389567187 -8.030041243409729