194

C -5.0710522388059704 1.0783507462686561 0.47044029850746183
C -3.8153522388059704 0.1782507462686569 0.19534029850746193
C -4.11845223880597 -1.3219492537313435 0.5608402985074619
C -2.96945223880597 -2.3874492537313436 0.7034402985074619
C -2.52015223880597 0.7359507462686565 0.7384402985074618
C -2.20305223880597 0.7852507462686571 2.097440298507462
C -1.5755522388059702 1.205650746268656 -0.18965970149253808
C -0.9533522388059701 1.2695507462686564 2.508640298507462
H -2.91125223880597 0.4298507462686567 2.840840298507462
C -0.32655223880597006 1.6562507462686575 0.21554029850746192
H -1.7850522388059702 1.178550746268657 -1.2573597014925382
C 0.004447761194029898 1.6956507462686563 1.569740298507462
H -0.7158522388059702 1.2676507462686573 3.5705402985074617
H 0.3943477611940298 1.9193507462686572 -0.5551597014925382
C -1.76045223880597 -2.1592492537313435 -0.1734597014925381
C -0.5287522388059701 -1.936549253731343 0.464840298507462
C -1.8068522388059702 -2.121249253731343 -1.5681597014925381
C 0.6114477611940299 -1.614449253731343 -0.2582597014925381
H -0.4544522388059702 -1.954049253731343 1.5506402985074619
C -0.6479522388059701 -1.8270492537313432 -2.2998597014925384
H -2.74345223880597 -2.290549253731343 -2.092259701492538
C 0.5698477611940298 -1.5506492537313434 -1.6506597014925382
H 1.5072477611940298 -1.351949253731343 0.2991402985074618
H -0.7173522388059701 -1.7640492537313435 -3.3840597014925375
C 1.7791477611940298 -1.082849253731343 -2.4255597014925376
H 1.4739477611940297 -0.9102492537313429 -3.464259701492538
H 2.1252477611940295 -0.1337492537313434 -2.0010597014925384
C 1.3965477611940298 2.0964507462686566 1.997440298507462
H 1.51704776119403 1.8448507462686567 3.057640298507462
H 2.1256477611940294 1.5207507462686571 1.4165402985074618
C 3.94864776119403 -1.4275492537313434 -3.522959701492538
H 4.81734776119403 -2.087049253731343 -3.615159701492538
H 3.4305477611940303 -1.3641492537313429 -4.484459701492538
H 4.26984776119403 -0.441449253731343 -3.176459701492538
C 2.60904776119403 -3.4296492537313434 -2.8992597014925376
H 1.9825477611940296 -3.869549253731343 -2.119359701492538
H 2.06294776119403 -3.373349253731343 -3.845759701492538
H 3.5215477611940305 -4.019849253731343 -3.0234597014925377
C 3.7281477611940304 -2.060049253731343 -1.156659701492538
H 3.9048477611940298 -1.032549253731343 -0.8295597014925382
H 3.12924776119403 -2.623249253731343 -0.4404597014925382
H 4.68244776119403 -2.5769492537313434 -1.3005597014925383
C 3.1110477611940297 3.755250746268656 2.588740298507462
H 3.40124776119403 4.809350746268656 2.534540298507462
H 2.9823477611940303 3.461750746268656 3.634840298507462
H 3.86514776119403 3.1392507462686563 2.091540298507462
C 1.99744776119403 3.9574507462686572 0.40494029850746194
H 2.67914776119403 3.230350746268657 -0.04295970149253803
H 1.03214776119403 3.981150746268657 -0.10175970149253821
H 2.4399477611940297 4.958250746268657 0.368240298507462
C 0.7418477611940297 4.4992507462686575 2.475440298507462
H -0.18475223880597014 4.424250746268656 1.901240298507462
H 0.57844776119403 4.189650746268656 3.511940298507462
H 1.1210477611940297 5.524350746268658 2.4432402985074617
N 3.00114776119403 -2.025349253731343 -2.490159701492538
N 1.7831477611940298 3.586450746268657 1.862540298507462
C -3.55075223880597 -3.8435492537313434 0.6444402985074619
H -2.62515223880597 -2.2736492537313433 1.7424402985074618
H -4.67195223880597 -1.3478492537313436 1.5102402985074619
H -4.83415223880597 -1.6757492537313432 -0.1945597014925382
H -3.7169522388059697 0.17335074626865676 -0.900559701492538
H -3.9132522388059705 -4.043149253731343 -0.34225970149253815
H -4.35435223880597 -3.9354492537313432 1.3449402985074619
H -2.78115223880597 -4.545049253731343 0.8904402985074619
H -5.24235223880597 1.138950746268657 1.5249402985074618
H -5.92805223880597 0.6501507462686567 -0.006059701492538094
H -4.89895223880597 2.059650746268657 0.08004029850746197
C -3.143241476741431 3.388176649721906 2.2880951000456338
O -2.3635947616323545 3.3204842672440886 1.350361534700923
O -2.834743666196127 3.279831397037392 3.4804548910523097
O -4.3613952619775604 3.575503409697953 2.189817814207212
O -9.535138545290609 -3.679540072172064 -0.20572456352545165
H -10.428020807434239 -3.3361869009027068 -0.05133148522025888
H -8.980338989700048 -2.8855203111898144 -0.23203077165599906
O -5.627263440040925 9.227891373112788 4.528814245000613
H -5.3218077620468085 10.063177267206964 4.913472094015096
H -6.109367719315905 8.799597101015964 5.252071754255653
O 0.8944518987505142 0.608498569555231 -10.57621057412887
H 1.6908025988933955 0.5065876810085781 -11.118803506332721
H 1.0830299763916937 1.384350840523827 -10.027162756023717
O 5.9489621480285315 8.731196959734485 0.06450189887242619
H 6.546942053051218 9.17860379316392 -0.5529238177038316
H 5.0708144173254395 8.862406106145379 -0.3235736959014974
O 1.713194186797105 -3.3117415821968543 3.1434564077965716
H 1.7782323406392195 -2.797437635424344 2.324781352735634
H 1.6003224212592102 -2.6405469006134306 3.8331807065264947
O 0.5649365198949727 8.137961468803903 1.6327445230030353
H 0.5702091946402437 8.161066113944111 0.6640310817966191
H -0.2721779424749746 7.701881783474875 1.8519152994181614
O -2.602563350875749 2.7031026038131585 -8.731520589293025
H -1.908821608375586 2.03858212230292 -8.60462582475863
H -2.4870063872181807 2.989666157690267 -9.649937630750538
O -2.7655712199014983 0.2927067660672056 7.46861277123997
H -3.074401218391655 1.0541616771675213 7.982205807888425
H -2.7997115611705556 -0.44340572752853946 8.097846255862558
O 7.187434766898566 0.28820821762850823 -6.515139469843574
H 7.423454612141757 0.8719802907854223 -7.251666561099192
H 7.84220334589394 0.49688193399171837 -5.831988437962963
O 7.8489420680604916 1.6128571055008452 0.6238524286855345
H 8.069084129451092 1.3600624698425188 1.5330277153542122
H 8.392914742907783 1.024417808940135 0.07906360025508516
O 0.57735444664781 9.569490662031797 7.934585588561006
H -0.06063263671940433 8.840408739944213 7.954063505330269
H 1.422320573908329 9.146936035407437 8.150089128208744
O 6.929703777382672 3.8745403473802287 -8.508471512022325
H 6.975792733671172 3.804475059100337 -7.543104213846913
H 6.831042427416036 2.957402861220687 -8.805265571605256
O -1.416835505062629 -8.46300812253663 -0.807639865771904
H -1.0300676346966375 -7.574878923196758 -0.7830533525487051
H -2.322968177070631 -8.332563870503126 -0.4900397679585409
O 8.808862901354857 -4.069269812156753 1.4951864089966365
H 8.11747270872913 -3.5939466646959604 1.9799697254679502
H 8.387259044246163 -4.302111005462414 0.6543552067502718
O 3.359380430897557 7.380071406965981 -5.174046833175828
H 4.273977703497481 7.062246701886823 -5.135750061848107
H 2.88212821491373 6.666202694256363 -5.623027598524231
O -2.0498419370839223 -1.4149433115047332 -6.59059544160044
H -1.7577656194124205 -1.5729647990931803 -7.50091845625831
H -2.1889926118288776 -2.304220130892954 -6.231728094915356
O -4.000294575152747 8.065926577606172 -1.3716668351489996
H -3.6299239153883676 7.3276773750377275 -0.8649311582988742
H -4.273779087163887 7.6614293847685095 -2.208655596708244
O -4.13888734900303 7.008022114869679 2.9788749050166534
H -4.153651882805709 7.25517146838246 3.915713505043256
H -3.2945080920140204 7.358444046559947 2.6576427701715404
O 1.6336547370293197 -5.247152195547596 6.232095756665877
H 1.0680709173543983 -4.460406758534829 6.2214225583861715
H 1.0776969078350669 -5.940347840358717 5.8456340710196715
O -1.0862726641444347 6.02717490029532 9.393648522824368
H -0.3298605451456953 5.9097283557764895 8.799498396751485
H -1.6706879276643716 6.631592226910513 8.911880488027261
C -2.709790799356158 -19.900851481259732 14.615510396307307
O -2.9361373221464504 -18.74061773428202 14.803773938435867
O -2.4834442765658657 -21.06108522823745 14.427246854178744
O 5.277782100223176 -7.205649589651253 11.199158372114413
H 5.310269136166969 -7.091219651293108 12.160832817341559
H 5.483980385161691 -6.32495804750743 10.85155713623521
O -9.608662822603812 -0.3678326263650862 -15.921165872420811
H -10.45986490133549 -0.3379928202739938 -16.383261061786946
H -9.117618041046665 0.38347764014190866 -16.286364243510665
O -9.186306065467491 2.711866108509592 -14.19400793402096
H -8.289731114786893 2.3987603512714433 -14.38658389175299
H -9.601633070312728 1.9654981503388482 -13.736405164839741
O -11.616780245218658 10.360464909809979 -9.568557975832691
H -11.366116137575178 10.816815920053212 -10.385796385043419
H -12.12283151245149 9.59295600417109 -9.874832589532618
O -9.271315899790626 2.457010297565035 14.719352568436108
H -8.983115455402356 2.407622996327154 15.643186295483808
H -8.543273835263296 2.0513328083446334 14.225042472121444
O -1.1436108154065967 6.297186346747798 -5.65372177424122
H -0.6033374590928644 6.645612836511468 -6.378753524296665
H -1.0626196033508148 6.9673199307018 -4.958507168866232
O -8.92157376125419 -8.231808867427615 9.699757172696918
H -8.759790707213256 -8.142261999654519 8.748560579558982
H -9.424183121219823 -9.056841010048515 9.775041561631845
O 1.9653411236422853 -10.182882891529651 13.922219714126923
H 1.9963758231454225 -10.122447164127637 14.888838422398257
H 2.194628522904474 -11.106156032926956 13.737948340294928
O 6.729583717408629 -12.61736091695344 -14.74094856621182
H 6.642075774621482 -12.552556194599305 -13.778083017544839
H 6.019459686986002 -13.223541301230567 -15.000238264105816
O 8.010716538151343 -2.033582277760213 -19.654608835629688
H 8.33782529688011 -1.7724377797254158 -18.78066903907098
H 8.816763410002874 -2.177679593451108 -20.172765518775858
O -6.856849637325185 15.309782429787957 -1.1572725782260171
H -7.075867037337078 16.033256576650373 -0.5509856047442083
H -6.730996144623076 14.545960567055934 -0.5744355472411429
O 3.13761235191296 -18.454286493376237 -7.274957747837831
H 3.8340892294185207 -18.950330712503412 -6.819076788956442
H 2.5283153920369426 -18.200538427403792 -6.565499448851141
O -2.5218648245084063 15.941699536036399 15.273441825369785
H -1.780215594722569 15.389022613064563 14.984526620383164
H -3.154219476292815 15.30887122887225 15.645756037183379
O 1.9885232265558792 -15.910248270506422 -2.746095439881805
H 1.9877952719537968 -16.193259094342082 -1.8193421282751197
H 1.141015729812829 -16.230912482167152 -3.0894137333418676
O -3.2013415221789354 -14.237469080831016 3.161567878031155
H -3.6518010970616044 -14.911776935199622 3.6920039682751478
H -2.6972680579144166 -14.749370680411698 2.511315127732394
O 14.97162451163194 6.728079018336585 7.629284611877564
H 15.876755763442834 6.382578818119837 7.610998399983446
H 14.999464288596162 7.4216773427871 8.30538242687035
O -0.5598027453660048 -18.55807718710465 8.838656957954134
H -0.6899466050995393 -18.511985689896907 9.797774003240479
H 0.3927151353316969 -18.705186232352368 8.7385042742284
O -4.9499594092456345 -4.771656219593083 -10.940169571453193
H -4.797703342606038 -5.382006275368767 -10.203109020015216
H -5.910916592676569 -4.64721625839661 -10.946328465014778
O -16.697368359062168 9.998158256714763 1.8803508995540583
H -17.20757980636319 10.110986197338903 2.696391028320724
H -17.186910210856418 10.517094299516451 1.224594768722496
O 8.052705010934249 -5.414288769527436 13.33294730896691
H 8.779173931594705 -5.377892991718703 12.692724213810127
H 8.243172054146255 -4.687311284563226 13.944656378791105