194

C -5.0710522388059704 1.0783507462686561 0.47044029850746183
C -3.8153522388059704 0.1782507462686569 0.19534029850746193
C -4.11845223880597 -1.3219492537313435 0.5608402985074619
C -2.96945223880597 -2.3874492537313436 0.7034402985074619
C -2.52015223880597 0.7359507462686565 0.7384402985074618
C -2.20305223880597 0.7852507462686571 2.097440298507462
C -1.5755522388059702 1.205650746268656 -0.18965970149253808
C -0.9533522388059701 1.2695507462686564 2.508640298507462
H -2.91125223880597 0.4298507462686567 2.840840298507462
C -0.32655223880597006 1.6562507462686575 0.21554029850746192
H -1.7850522388059702 1.178550746268657 -1.2573597014925382
C 0.004447761194029898 1.6956507462686563 1.569740298507462
H -0.7158522388059702 1.2676507462686573 3.5705402985074617
H 0.3943477611940298 1.9193507462686572 -0.5551597014925382
C -1.76045223880597 -2.1592492537313435 -0.1734597014925381
C -0.5287522388059701 -1.936549253731343 0.464840298507462
C -1.8068522388059702 -2.121249253731343 -1.5681597014925381
C 0.6114477611940299 -1.614449253731343 -0.2582597014925381
H -0.4544522388059702 -1.954049253731343 1.5506402985074619
C -0.6479522388059701 -1.8270492537313432 -2.2998597014925384
H -2.74345223880597 -2.290549253731343 -2.092259701492538
C 0.5698477611940298 -1.5506492537313434 -1.6506597014925382
H 1.5072477611940298 -1.351949253731343 0.2991402985074618
H -0.7173522388059701 -1.7640492537313435 -3.3840597014925375
C 1.7791477611940298 -1.082849253731343 -2.4255597014925376
H 1.4739477611940297 -0.9102492537313429 -3.464259701492538
H 2.1252477611940295 -0.1337492537313434 -2.0010597014925384
C 1.3965477611940298 2.0964507462686566 1.997440298507462
H 1.51704776119403 1.8448507462686567 3.057640298507462
H 2.1256477611940294 1.5207507462686571 1.4165402985074618
C 3.94864776119403 -1.4275492537313434 -3.522959701492538
H 4.81734776119403 -2.087049253731343 -3.615159701492538
H 3.4305477611940303 -1.3641492537313429 -4.484459701492538
H 4.26984776119403 -0.441449253731343 -3.176459701492538
C 2.60904776119403 -3.4296492537313434 -2.8992597014925376
H 1.9825477611940296 -3.869549253731343 -2.119359701492538
H 2.06294776119403 -3.373349253731343 -3.845759701492538
H 3.5215477611940305 -4.019849253731343 -3.0234597014925377
C 3.7281477611940304 -2.060049253731343 -1.156659701492538
H 3.9048477611940298 -1.032549253731343 -0.8295597014925382
H 3.12924776119403 -2.623249253731343 -0.4404597014925382
H 4.68244776119403 -2.5769492537313434 -1.3005597014925383
C 3.1110477611940297 3.755250746268656 2.588740298507462
H 3.40124776119403 4.809350746268656 2.534540298507462
H 2.9823477611940303 3.461750746268656 3.634840298507462
H 3.86514776119403 3.1392507462686563 2.091540298507462
C 1.99744776119403 3.9574507462686572 0.40494029850746194
H 2.67914776119403 3.230350746268657 -0.04295970149253803
H 1.03214776119403 3.981150746268657 -0.10175970149253821
H 2.4399477611940297 4.958250746268657 0.368240298507462
C 0.7418477611940297 4.4992507462686575 2.475440298507462
H -0.18475223880597014 4.424250746268656 1.901240298507462
H 0.57844776119403 4.189650746268656 3.511940298507462
H 1.1210477611940297 5.524350746268658 2.4432402985074617
N 3.00114776119403 -2.025349253731343 -2.490159701492538
N 1.7831477611940298 3.586450746268657 1.862540298507462
C -3.55075223880597 -3.8435492537313434 0.6444402985074619
H -2.62515223880597 -2.2736492537313433 1.7424402985074618
H -4.67195223880597 -1.3478492537313436 1.5102402985074619
H -4.83415223880597 -1.6757492537313432 -0.1945597014925382
H -3.7169522388059697 0.17335074626865676 -0.900559701492538
H -3.9132522388059705 -4.043149253731343 -0.34225970149253815
H -4.35435223880597 -3.9354492537313432 1.3449402985074619
H -2.78115223880597 -4.545049253731343 0.8904402985074619
H -5.24235223880597 1.138950746268657 1.5249402985074618
H -5.92805223880597 0.6501507462686567 -0.006059701492538094
H -4.89895223880597 2.059650746268657 0.08004029850746197
C 1.600141259767619 -0.28581202911086523 4.062498813598114
O 0.8803554691434725 -1.008781543698803 4.734063401104076
O 1.5687822184136744 -0.1959165665836866 2.829791678694455
O 2.4713097412125147 0.467814851663616 4.5116762684098175
O -6.08034779657277 0.22658966248270307 5.219317894215655
H -6.69111142107876 0.37927666494621054 5.9559465870854185
H -6.634012485194417 0.33030896656295383 4.430863924199265
O 4.088151317924988 -5.7542041438767635 0.2008937255966617
H 4.05280555831074 -5.558530954340373 1.1492765792343413
H 3.569985431962755 -6.568001463226265 0.11033997390994994
O 6.611261639011543 -8.493652839783952 -2.573645752833032
H 6.0784002278143205 -8.039533134344817 -3.243572141691374
H 7.368778488234275 -8.837372685255406 -3.070623453814419
O 4.763468878249295 -4.681570718072137 6.221222120635493
H 5.7231407949263 -4.809836830316847 6.18191596728628
H 4.569151098585848 -4.658032650991778 7.170247148864352
O -7.834340295468635 -4.6170049644695155 -0.5813336186488625
H -7.9023407927546945 -4.666603787812476 0.38400738120136846
H -8.637198097218798 -5.059320243871517 -0.8955604285751123
O 4.96510518055222 7.413054239022647 -1.6676616999078842
H 4.691538814534431 8.312796488980421 -1.4340109264772294
H 5.478433120229354 7.528370826701517 -2.4813928933943625
O -4.164058251265435 5.1314396566032885 2.5969720985573086
H -4.187992960164371 5.174790048820327 3.5647092685081967
H -5.084535538726706 4.959792712233732 2.3475310553095436
O 1.7470396586988741 -9.907260649845067 6.635049635353848
H 1.9169021433539992 -9.90344781077746 7.589041016585897
H 2.631694366845509 -9.897809317375845 6.239753968835041
O -7.748777638674875 5.0062014041147815 5.975016660321753
H -7.802289287172114 4.158319449381038 5.5089693974695875
H -8.592867539233495 5.067571866367576 6.446935986518314
O 2.4064056077050306 -4.189600288149636 10.148663276185031
H 2.058858384181662 -3.3224678003713475 9.891254004866703
H 3.358877527576324 -4.1178260397289685 9.985544781156605
O 8.159277469555136 4.574997558193309 1.2238572904194918
H 7.4666197288342575 5.138879867095984 0.8480523505556863
H 7.689354179584697 3.7680875874747164 1.4827594823728947
O -10.253336714697602 -3.1325534305943536 7.7036623348562925
H -9.316303969365057 -3.3735849034338456 7.75696167983706
H -10.325673803994729 -2.659070076451137 6.861318697638495
O -5.1460313048138815 7.10764044953104 -4.483855543321713
H -5.073266560220353 6.250015206956796 -4.928997758960388
H -4.375842190796688 7.132506812564003 -3.896358873595898
O -2.890706682978256 3.45250405487345 10.154979178086894
H -3.4014645512677752 4.195067835563807 10.510918482585833
H -3.4608614989315454 2.6833475822333113 10.304256606859795
O -5.2266261998321575 -9.27332682918531 0.9126954053705151
H -4.960190347522328 -10.053740688236722 1.4215504948649769
H -4.432899207660448 -9.040966611648024 0.4077517099904486
O -1.2741921552465687 -8.816560413211716 -1.917359724988311
H -0.4236109595711566 -8.861765483116551 -2.379350512903271
H -1.6188491485100422 -9.72051211856516 -1.9725395735127687
O -8.313673908618252 -1.4411538939737403 -0.2461566134710913
H -7.40204944889387 -1.7565244532917115 -0.15423484429915457
H -8.278236139083722 -0.8410731012705391 -1.0061626338545588
O 1.5591071633259799 3.185214810686114 -7.244133461845468
H 1.2864967966156318 2.4732570087278543 -7.842269761607332
H 0.7242510826088466 3.5956576522437196 -6.972998914795953
O -9.896694086079775 1.835158548010288 6.857465330100435
H -9.855966133804397 2.427415691756983 6.091606291840483
H -10.811195528389817 1.9159963532442674 7.167488402722147
O -2.414480246309383 -5.299499919771451 3.6949123431869495
H -1.8867117946382508 -4.917682409811451 2.977525970714903
H -2.9214249733485347 -6.003590010809392 3.2633730845680122
C -3.083444473015275 3.5211354825119194 -18.002610230064615
O -3.5076375939583535 4.041694381454327 -17.01170312736707
O -2.6592513520721965 3.0005765835695124 -18.99351733276216
O -7.969120376527126 10.427059623193323 -9.954678608009877
H -8.429891666934552 10.160896094484794 -10.764502138676711
H -7.204403608159554 9.833290899471127 -9.914567372591723
O -6.013064888983607 12.956768904634469 -10.663804590423986
H -5.788070532385205 13.074354255482692 -11.598961572788323
H -6.513658265010077 13.75603301755082 -10.44121731769156
O 9.939689601460953 -6.72785323842092 2.533984920802797
H 10.091361959535469 -6.771156254854272 1.5779055823251311
H 10.655151292118063 -7.263089562478106 2.9089497070318764
O -11.275212685421227 8.692243827034533 -1.8586825889701335
H -10.495259917375932 8.189232543709213 -1.5800776978323503
H -11.463974174260462 9.268903864977966 -1.1031733267699462
O -3.5641776969868584 -12.272531528941585 8.516695292115793
H -3.315977749040675 -12.145043449682458 7.588734661277214
H -4.063562787045122 -11.472021952261956 8.737513981930993
O 4.670162144125586 -8.430356302248875 -9.908394907754742
H 4.939886823990858 -8.949114734304336 -10.681121019092346
H 3.8151044694877436 -8.054155505367037 -10.165904670226762
O 1.5273709831980693 -7.628477649683623 5.704744643242714
H 1.7573485879012245 -7.770497827751364 6.635286381831912
H 0.7076825088749368 -8.131629941870472 5.586801774747268
O -0.44757957977803736 9.383087038182788 -7.450149996496467
H -0.32626755491764936 10.206094653183065 -7.947049599208955
H -0.690781897574031 9.680460883885132 -6.560552687141918
O 0.1968306395173569 -5.367009002353167 17.24902848137594
H 0.11530306479477381 -5.553511613212406 16.3016439830847
H -0.15340907851755214 -6.163575617771239 17.675380110213244
O -11.676580880112152 -11.924603909441242 -4.187950815906169
H -11.278492273886242 -12.664051554566203 -3.7045151959811804
H -11.665567215833342 -11.195064700056442 -3.5502885342324317
O 10.488957221161705 6.950906505861573 4.140381622031404
H 10.273843721093561 6.874214666825044 5.082088530158146
H 9.713710232886717 6.580546728142219 3.692288231633566
O 6.3009511268270595 5.6809593370897495 -9.306504216101448
H 6.532132409746585 5.8039064086296825 -8.373548381708718
H 7.040224068450985 6.084180745604604 -9.785930913103197
O 11.611768100100766 2.1972150253780782 -16.39906011143259
H 12.235113321629326 2.8968611901538748 -16.645846123621354
H 10.861988878978597 2.676383949445311 -16.015406353362
O -3.5689184028733263 -6.274277133672612 9.548221790826616
H -3.4715975923717695 -5.4129704131242695 9.981403911742957
H -3.7632257447425945 -6.882308455187004 10.27726535142719
O 5.098077049492423 -5.193752842985317 13.882736039894958
H 5.102292369577368 -4.434705478552026 13.280409976600783
H 4.415347620792925 -5.777347614702349 13.519060891015904
O 20.261906068931864 -4.742213267293947 3.1671576002141992
H 21.003083955053043 -5.176798256559221 2.71909668345148
H 20.605621035927488 -3.8641108150854597 3.3902227234151106
O -13.734508063764023 4.687714565011003 -2.2539088757155157
H -13.931613032337552 4.745962862878255 -3.2008640615924393
H -14.153802163639028 5.476574524681374 -1.87860317879783
O -3.143432131355298 -7.996229360668171 -5.764409937752733
H -2.9411725221641793 -7.1446854860621425 -6.180260195671145
H -2.31348680446345 -8.491992140746335 -5.830530770774968
O -9.538101273688742 -17.60332572914821 5.789730464337428
H -9.663028005660063 -16.70590828507883 6.1332455289546015
H -8.92894256582569 -17.48629680261984 5.0452898399151485
O 13.15882866913639 4.654995971664175 5.236142222738887
H 13.228979429030305 4.692251837526373 6.2018845425349935
H 13.782529616500621 5.330417911839032 4.929932694331633