194

C -5.0710522388059704 1.0783507462686561 0.47044029850746183
C -3.8153522388059704 0.1782507462686569 0.19534029850746193
C -4.11845223880597 -1.3219492537313435 0.5608402985074619
C -2.96945223880597 -2.3874492537313436 0.7034402985074619
C -2.52015223880597 0.7359507462686565 0.7384402985074618
C -2.20305223880597 0.7852507462686571 2.097440298507462
C -1.5755522388059702 1.205650746268656 -0.18965970149253808
C -0.9533522388059701 1.2695507462686564 2.508640298507462
H -2.91125223880597 0.4298507462686567 2.840840298507462
C -0.32655223880597006 1.6562507462686575 0.21554029850746192
H -1.7850522388059702 1.178550746268657 -1.2573597014925382
C 0.004447761194029898 1.6956507462686563 1.569740298507462
H -0.7158522388059702 1.2676507462686573 3.5705402985074617
H 0.3943477611940298 1.9193507462686572 -0.5551597014925382
C -1.76045223880597 -2.1592492537313435 -0.1734597014925381
C -0.5287522388059701 -1.936549253731343 0.464840298507462
C -1.8068522388059702 -2.121249253731343 -1.5681597014925381
C 0.6114477611940299 -1.614449253731343 -0.2582597014925381
H -0.4544522388059702 -1.954049253731343 1.5506402985074619
C -0.6479522388059701 -1.8270492537313432 -2.2998597014925384
H -2.74345223880597 -2.290549253731343 -2.092259701492538
C 0.5698477611940298 -1.5506492537313434 -1.6506597014925382
H 1.5072477611940298 -1.351949253731343 0.2991402985074618
H -0.7173522388059701 -1.7640492537313435 -3.3840597014925375
C 1.7791477611940298 -1.082849253731343 -2.4255597014925376
H 1.4739477611940297 -0.9102492537313429 -3.464259701492538
H 2.1252477611940295 -0.1337492537313434 -2.0010597014925384
C 1.3965477611940298 2.0964507462686566 1.997440298507462
H 1.51704776119403 1.8448507462686567 3.057640298507462
H 2.1256477611940294 1.5207507462686571 1.4165402985074618
C 3.94864776119403 -1.4275492537313434 -3.522959701492538
H 4.81734776119403 -2.087049253731343 -3.615159701492538
H 3.4305477611940303 -1.3641492537313429 -4.484459701492538
H 4.26984776119403 -0.441449253731343 -3.176459701492538
C 2.60904776119403 -3.4296492537313434 -2.8992597014925376
H 1.9825477611940296 -3.869549253731343 -2.119359701492538
H 2.06294776119403 -3.373349253731343 -3.845759701492538
H 3.5215477611940305 -4.019849253731343 -3.0234597014925377
C 3.7281477611940304 -2.060049253731343 -1.156659701492538
H 3.9048477611940298 -1.032549253731343 -0.8295597014925382
H 3.12924776119403 -2.623249253731343 -0.4404597014925382
H 4.68244776119403 -2.5769492537313434 -1.3005597014925383
C 3.1110477611940297 3.755250746268656 2.588740298507462
H 3.40124776119403 4.809350746268656 2.534540298507462
H 2.9823477611940303 3.461750746268656 3.634840298507462
H 3.86514776119403 3.1392507462686563 2.091540298507462
C 1.99744776119403 3.9574507462686572 0.40494029850746194
H 2.67914776119403 3.230350746268657 -0.04295970149253803
H 1.03214776119403 3.981150746268657 -0.10175970149253821
H 2.4399477611940297 4.958250746268657 0.368240298507462
C 0.7418477611940297 4.4992507462686575 2.475440298507462
H -0.18475223880597014 4.424250746268656 1.901240298507462
H 0.57844776119403 4.189650746268656 3.511940298507462
H 1.1210477611940297 5.524350746268658 2.4432402985074617
N 3.00114776119403 -2.025349253731343 -2.490159701492538
N 1.7831477611940298 3.586450746268657 1.862540298507462
C -3.55075223880597 -3.8435492537313434 0.6444402985074619
H -2.62515223880597 -2.2736492537313433 1.7424402985074618
H -4.67195223880597 -1.3478492537313436 1.5102402985074619
H -4.83415223880597 -1.6757492537313432 -0.1945597014925382
H -3.7169522388059697 0.17335074626865676 -0.900559701492538
H -3.9132522388059705 -4.043149253731343 -0.34225970149253815
H -4.35435223880597 -3.9354492537313432 1.3449402985074619
H -2.78115223880597 -4.545049253731343 0.8904402985074619
H -5.24235223880597 1.138950746268657 1.5249402985074618
H -5.92805223880597 0.6501507462686567 -0.006059701492538094
H -4.89895223880597 2.059650746268657 0.08004029850746197
C -0.014276414088890688 2.982851288441697 -2.837845406769672
O 0.04961485515889463 3.720488369422648 -1.8664624024527297
O 0.4437147954871794 3.2379443259818714 -3.957578883204835
O -0.5468190955487355 1.8671177039194777 -2.851455887758913
O -8.060604683404513 -1.3288169084396895 4.928311669496947
H -9.003275497088227 -1.4474690508114967 4.737889078821713
H -8.05050999753767 -0.8427901139788099 5.7665467180861425
O 5.2887478041366345 8.970564751532908 5.196043961782179
H 5.006642967386739 8.906217947333102 4.271250089196732
H 6.2556220181200395 8.926496257479094 5.149416003797705
O -6.051799370772226 6.6960886589648325 1.7927406943507553
H -6.982481204438781 6.487668686612185 1.9640877004745319
H -5.603574273528909 6.462445714060402 2.6194614336561175
O -4.808104399559346 0.573591216271846 7.206134193601886
H -4.564257304234642 0.46677698483274677 6.27441713839479
H -5.190690838834624 1.4629057894441209 7.247476069781831
O -0.2961062235912668 5.601969948781582 -9.389851895208094
H 0.1231180501278053 5.674119710552663 -8.519212603020398
H 0.4242949350867431 5.32128657763795 -9.973975991645508
O -4.728583176819056 9.021205751868743 5.196891321325208
H -4.6380415610862205 8.730481796668457 4.276973306177559
H -5.68203775444614 8.976220981054883 5.363812509605135
O -0.12794190604481925 8.25101936584988 -2.375657475947585
H 0.020136851406403533 8.794425566453018 -3.1641685663183967
H -0.4099036302196941 7.394777336326335 -2.7310574158430962
O -1.949142508001204 4.193882247355412 -7.102281323311851
H -1.8180952557264447 4.389629575026781 -6.16234677331342
H -1.0507674092852604 4.06611810540974 -7.442223157071693
O 7.777196919693858 1.3095790008598307 -2.697525235493159
H 8.513315728220014 1.936650453242815 -2.759797622956057
H 7.697729692479166 0.9520882311668748 -3.5946580315067402
O 11.064422068312005 -2.2034014659045216 0.5654830598209907
H 10.526121587786092 -1.5879265426256755 0.04549212876500647
H 11.969045760456673 -2.0393174623499313 0.25938771570734787
O 2.145952994420041 7.057246433570916 -1.7058477867523878
H 2.7342236207885455 7.669187617085348 -1.238479607507198
H 2.517998833521048 7.011414026345426 -2.5994042921595977
O 1.8781286824070524 -0.4121659120589021 -5.786598603373808
H 1.8977845908672224 -0.47802043970899566 -6.753161681165729
H 2.56094326748517 0.24448756507632896 -5.582803614056582
O -3.8218871668228056 -2.116029283389512 -11.854138660086512
H -4.290016465377467 -2.321245633127138 -11.03090809303067
H -4.503043921817733 -2.200761169028428 -12.538103518087896
O -1.835674106147831 7.127572426339763 2.553226070407902
H -1.6665890899160862 6.899485557297467 1.6267521126754705
H -2.4531933601991565 6.44391655350463 2.8536367271994436
O 8.672916480376596 -7.638100029511531 0.24255407692395403
H 9.618741073016437 -7.4938688290357955 0.3961136994391381
H 8.258862575530356 -6.8151001515240175 0.5428747538912881
O -9.291379976794852 -0.20043099024458444 -3.8516512080244714
H -8.690747299688573 0.3191120151504636 -4.406883420380007
H -8.837679959525131 -0.24785145509506235 -2.996742126225233
O 0.3470713680335086 0.5775079596071557 -8.580786143397713
H 1.1456493796278324 0.9420373766994281 -8.991101656597525
H -0.23296273005596912 0.3808117614257105 -9.331674280855278
O 4.450463006212773 6.2756196929336525 -5.321854437127406
H 3.8614927057883395 6.6488491012728 -4.648964289429609
H 4.172739398583687 6.709421529769508 -6.142614760500392
O -1.1680085800566693 -0.6508985200211677 4.9409268924827625
H -1.1338848740072718 -0.546662075487699 5.903702927298999
H -1.959296464543719 -0.15626393224864565 4.679848259226198
O -2.198446851496111 4.251225764557553 7.2742859276050815
H -2.1969025369893957 5.036768051342127 6.706933931340005
H -2.3709780528325464 4.60294961815084 8.160561990510368
C -0.7103761526750771 5.777437961402722 14.700903928801566
O -0.5736130303366149 6.055931973278129 13.544809126885314
O -0.8471392750135402 5.498943949527316 15.856998730717816
O 10.671386190640856 -11.944204950837982 -2.6664613902864067
H 9.964575671386534 -11.690283643079601 -2.054162267113991
H 11.178683265899794 -11.12787315253277 -2.789806502915577
O -14.749300643122382 -5.326325600231435 -9.583471759010582
H -14.684310731530278 -4.503698057473035 -9.075507592767993
H -15.557265306889482 -5.215101766443122 -10.106715779713301
O -2.5327855643193 -10.440892271767485 -10.220981883907548
H -2.419457638658307 -10.306860294131571 -11.173955948159238
H -2.8882666112055992 -9.596107169399156 -9.906445239903777
O 8.76149885512454 -5.780008220109773 -3.408133546448255
H 8.439188990169171 -5.836350016325103 -2.4960429205498835
H 9.509055012638045 -6.396135657266868 -3.430688298627604
O -15.188951922321364 -4.1183481889779285 8.36185740006749
H -14.693825133282791 -4.662441094499129 7.731159588244864
H -15.221563639443204 -4.660998403555449 9.163997764857427
O -1.953219683220433 14.058257393029177 -6.64229353640231
H -2.457956034173402 14.86120070418636 -6.443571086753
H -1.862465880610861 13.620118756698435 -5.782781915209123
O -10.327286298520455 -9.430802389838833 6.262004642459119
H -10.172563015841492 -9.392737338632273 7.217817968675953
H -11.255659748689009 -9.170791920883902 6.164643267386781
O -6.36435160990939 -12.64949193581928 0.7719416003804405
H -6.178598363416275 -13.412609351138755 0.20438992982225024
H -7.259684951553146 -12.816332701970527 1.1028559554499813
O 13.85186429725354 13.883826202097676 -7.623725049501491
H 14.087362028171553 14.082079773779938 -8.542530631193124
H 13.941751448227787 14.735359544112438 -7.17010272660842
O -3.2860983820801515 -8.035288824643809 13.24645647249944
H -3.436424232347176 -7.09908051741958 13.446165012942364
H -2.3297929109016655 -8.092998616448643 13.10115895007068
O -13.189368970808589 -3.570396255079502 -0.07475437710908861
H -12.73777744093163 -4.285353114134349 -0.5479024900016796
H -13.094622082777068 -2.8050487763505596 -0.6614640227700341
O -7.899059855762847 1.2678415464719373 -17.353057252967268
H -8.396803457965387 0.4639980808625559 -17.565317343807585
H -8.558915546143123 1.8523123745428416 -16.950631777497737
O -5.132424575627723 9.300258033221281 13.694404574167265
H -4.881946468117836 9.27087394650264 14.63001381418469
H -5.689246304700875 8.516042283413285 13.576433543464532
O 4.669286996905575 18.679831523839795 -5.469331890776733
H 4.985147547262895 17.776654986315158 -5.316127414037368
H 3.70621472519949 18.58555044318544 -5.519975958558913
O 14.969350438305044 11.278330823025492 -8.770508885934392
H 14.739593045664742 10.408350494053487 -9.130110227184513
H 15.474420322165017 11.699749538468918 -9.48203725711272
O -0.9676505590546949 15.540744173786324 -10.188436635248086
H -0.61022699229173 14.690541933083676 -10.485710752396955
H -1.6853739564854373 15.724186556822497 -10.813083704549209
O 12.783864628714099 7.9120948762124526 14.32605637668079
H 13.655823504429893 7.574713495325064 14.58067153685585
H 12.920436649688728 8.263703823754456 13.433486393208732
O 6.334001015675089 7.372200775023122 2.2863183686485664
H 5.469195255417279 7.102631427761894 2.6304269575301373
H 6.589712026141046 8.115884568347528 2.8524528394000837
O 5.491235871027194 3.3859434060285984 -7.529634830226503
H 4.791629012232377 3.005956048366246 -8.082018037831544
H 5.475850377840149 4.3297122167700115 -7.748782412396902
O 19.06019944990687 -4.692588548527319 0.08851248863581773
H 18.222439941880456 -5.134662117731364 -0.1156867352180786
H 19.25344768490146 -4.177348439974775 -0.7090743057071167