194

C -5.0710522388059704 1.0783507462686561 0.47044029850746183
C -3.8153522388059704 0.1782507462686569 0.19534029850746193
C -4.11845223880597 -1.3219492537313435 0.5608402985074619
C -2.96945223880597 -2.3874492537313436 0.7034402985074619
C -2.52015223880597 0.7359507462686565 0.7384402985074618
C -2.20305223880597 0.7852507462686571 2.097440298507462
C -1.5755522388059702 1.205650746268656 -0.18965970149253808
C -0.9533522388059701 1.2695507462686564 2.508640298507462
H -2.91125223880597 0.4298507462686567 2.840840298507462
C -0.32655223880597006 1.6562507462686575 0.21554029850746192
H -1.7850522388059702 1.178550746268657 -1.2573597014925382
C 0.004447761194029898 1.6956507462686563 1.569740298507462
H -0.7158522388059702 1.2676507462686573 3.5705402985074617
H 0.3943477611940298 1.9193507462686572 -0.5551597014925382
C -1.76045223880597 -2.1592492537313435 -0.1734597014925381
C -0.5287522388059701 -1.936549253731343 0.464840298507462
C -1.8068522388059702 -2.121249253731343 -1.5681597014925381
C 0.6114477611940299 -1.614449253731343 -0.2582597014925381
H -0.4544522388059702 -1.954049253731343 1.5506402985074619
C -0.6479522388059701 -1.8270492537313432 -2.2998597014925384
H -2.74345223880597 -2.290549253731343 -2.092259701492538
C 0.5698477611940298 -1.5506492537313434 -1.6506597014925382
H 1.5072477611940298 -1.351949253731343 0.2991402985074618
H -0.7173522388059701 -1.7640492537313435 -3.3840597014925375
C 1.7791477611940298 -1.082849253731343 -2.4255597014925376
H 1.4739477611940297 -0.9102492537313429 -3.464259701492538
H 2.1252477611940295 -0.1337492537313434 -2.0010597014925384
C 1.3965477611940298 2.0964507462686566 1.997440298507462
H 1.51704776119403 1.8448507462686567 3.057640298507462
H 2.1256477611940294 1.5207507462686571 1.4165402985074618
C 3.94864776119403 -1.4275492537313434 -3.522959701492538
H 4.81734776119403 -2.087049253731343 -3.615159701492538
H 3.4305477611940303 -1.3641492537313429 -4.484459701492538
H 4.26984776119403 -0.441449253731343 -3.176459701492538
C 2.60904776119403 -3.4296492537313434 -2.8992597014925376
H 1.9825477611940296 -3.869549253731343 -2.119359701492538
H 2.06294776119403 -3.373349253731343 -3.845759701492538
H 3.5215477611940305 -4.019849253731343 -3.0234597014925377
C 3.7281477611940304 -2.060049253731343 -1.156659701492538
H 3.9048477611940298 -1.032549253731343 -0.8295597014925382
H 3.12924776119403 -2.623249253731343 -0.4404597014925382
H 4.68244776119403 -2.5769492537313434 -1.3005597014925383
C 3.1110477611940297 3.755250746268656 2.588740298507462
H 3.40124776119403 4.809350746268656 2.534540298507462
H 2.9823477611940303 3.461750746268656 3.634840298507462
H 3.86514776119403 3.1392507462686563 2.091540298507462
C 1.99744776119403 3.9574507462686572 0.40494029850746194
H 2.67914776119403 3.230350746268657 -0.04295970149253803
H 1.03214776119403 3.981150746268657 -0.10175970149253821
H 2.4399477611940297 4.958250746268657 0.368240298507462
C 0.7418477611940297 4.4992507462686575 2.475440298507462
H -0.18475223880597014 4.424250746268656 1.901240298507462
H 0.57844776119403 4.189650746268656 3.511940298507462
H 1.1210477611940297 5.524350746268658 2.4432402985074617
N 3.00114776119403 -2.025349253731343 -2.490159701492538
N 1.7831477611940298 3.586450746268657 1.862540298507462
C -3.55075223880597 -3.8435492537313434 0.6444402985074619
H -2.62515223880597 -2.2736492537313433 1.7424402985074618
H -4.67195223880597 -1.3478492537313436 1.5102402985074619
H -4.83415223880597 -1.6757492537313432 -0.1945597014925382
H -3.7169522388059697 0.17335074626865676 -0.900559701492538
H -3.9132522388059705 -4.043149253731343 -0.34225970149253815
H -4.35435223880597 -3.9354492537313432 1.3449402985074619
H -2.78115223880597 -4.545049253731343 0.8904402985074619
H -5.24235223880597 1.138950746268657 1.5249402985074618
H -5.92805223880597 0.6501507462686567 -0.006059701492538094
H -4.89895223880597 2.059650746268657 0.08004029850746197
C 2.5597440814166834 -3.50537118577489 2.8820340499849495
O 3.3366183997219254 -2.8725388350476146 3.5804358025820884
O 2.266710995038132 -3.2304180437735397 1.7127762323540194
O 1.9463643263211545 -4.5186843904863006 3.2364490744921515
O 1.979509751005887 4.364279423449906 -3.553389613177181
H 1.9828466999140621 4.828621465956064 -2.7028940580840377
H 1.6262525594521886 5.017845986749742 -4.1755005745434275
O -7.446439282538782 4.826757350606979 1.6773412413109536
H -7.747455779217872 3.923936373382097 1.4949386406996723
H -6.747155256715284 4.711316942331667 2.3381266131718235
O -6.616890763296632 -1.131863507864496 -3.070073795444584
H -6.809244288458061 -1.2975982994307296 -2.1349270384473362
H -5.829687752801279 -1.6688681805657397 -3.245855893691484
O -10.1495083988635 9.996309318256277 -0.11083362209373382
H -9.651668320039118 9.644185083281728 -0.8639147173017614
H -9.648044558002304 9.696268121667627 0.6621290166918583
O 4.548111137049741 -5.488056558636928 2.360910511693336
H 3.8589020852194222 -5.679837903016507 3.0144991864140027
H 4.410806741238725 -4.553858955093858 2.143231195438081
O 3.423997484137595 -8.040572716520535 5.483972079518896
H 3.493731430594384 -7.96484648748698 4.520452452397622
H 3.6794235776280835 -8.957449158755658 5.665788043445197
O 0.8893710136916582 -3.807923431295383 5.025824293059574
H 0.7674943390071827 -3.603130908926715 5.965065186467509
H 0.5254488851103734 -4.701060945928992 4.931866810212463
O -0.6447680621223522 7.383394225450891 -3.7711380255333022
H -0.2702089681506741 7.727122681923289 -2.9461994882869083
H -0.9265923886043277 8.177796426676093 -4.249115154684409
O 8.689474357022668 -2.526212867501707 -4.462999973488541
H 8.103708087759214 -1.7894277441094144 -4.232798069410881
H 8.391946737076163 -2.7949596677360424 -5.345164593631955
O -6.7188967807172055 3.845807510157585 7.891282666854268
H -6.585991637990083 4.6449328481274055 8.422980206957009
H -6.788162950682423 4.177526893627984 6.98346859303278
O 8.403113694015893 -4.0889512420949545 1.3869617160747967
H 7.6929487153632605 -4.128590452742313 0.7288874094994973
H 9.114849381794203 -4.617190462108017 0.9953527510564681
O 6.725546846265749 -0.4916499593974648 -0.12994134351222075
H 6.473684984615715 0.2459058799268532 0.4458575305964225
H 6.911863539120629 -0.07009686785449842 -0.9823151026544097
O -6.211626054369008 -1.5884806205904867 -6.965217098459341
H -6.131705896645602 -2.285135272964278 -7.6339864313503
H -5.300017641814364 -1.4393611057071842 -6.6724793032559
O -8.635855224751221 -3.891362536810206 -1.1051818677898768
H -8.44517544178203 -3.290799893917999 -1.8413429162223174
H -8.988320059602001 -3.3103630558425783 -0.4144068772112117
O 6.532589753119002 -3.939583595999798 -6.170831145333533
H 5.590216495141823 -3.7651025057525365 -6.0278054529016885
H 6.587023807674504 -4.176560011029132 -7.1088295764220355
O -6.836854288231918 5.640613843152548 -4.380589427299154
H -7.700437963717393 5.457699828206888 -4.78025560734377
H -7.0538730186341985 5.9771194174396856 -3.4981899636613605
O -3.6144389721633425 -5.707553928999392 6.946065352465009
H -4.0753527374665826 -6.463024901261971 6.551363606937295
H -3.3599193922848407 -5.164849423461254 6.184715533113172
O -2.559786148949538 0.44068111196982607 8.676214603491754
H -2.3501205753791354 1.3780282866433295 8.548199064235789
H -1.7048085990627788 0.03626135957206275 8.8869751248428
O -0.5129854309715394 -5.800536058750008 7.5045185629767746
H -1.1821343997846954 -5.471070949261551 6.885923577492693
H -0.14571913253683252 -4.9967346501840355 7.901986430761616
O -2.9373175453566205 7.799848773262875 1.5667193649834807
H -3.0294641360884125 7.893084977146156 0.6066238629619662
H -2.0689496448246913 7.3848504510670026 1.6793050043891344
C 5.688059883107133 10.511678535138127 11.187072411498177
O 5.550458318095644 10.329287114480735 10.01207563010813
O 5.8256614481186215 10.69406995579552 12.362069192888223
O -2.2301901849733388 -14.765996152458968 1.7766731591357274
H -2.7608234935904092 -14.925921973544767 0.9818024901359621
H -1.5137987859502267 -15.415513612480206 1.7144447344949856
O -7.561548182654283 -8.086237612913127 -4.496382453211819
H -7.901692177229487 -7.793158427406016 -3.6376776081824493
H -6.7771893377080215 -7.535134269335241 -4.6379036578132435
O 0.03604460338356397 16.13292125246642 3.1439058719362594
H 0.1249671341803813 16.585019189547182 3.9963538736959032
H 0.6377979389682387 15.37684671796315 3.2160596361372953
O 3.4650658545639335 1.0775511519021672 4.673583951873966
H 4.346447919675641 1.2378036448161223 4.304189649380976
H 3.087488358743549 0.40004117603705325 4.0927419668614675
O -1.4760116191698467 9.922516154060679 3.352143745295673
H -1.0695351518628766 9.547631715470215 4.147886100664771
H -1.2351473479614765 9.299185972518284 2.6504273980914888
O -0.5403189972661486 17.28639064406214 11.90673501421438
H -1.0289794083527053 18.119472057801207 11.82828937941402
H -0.8198616062561721 16.93086996928902 12.763719800466689
O 8.637695768223384 -13.635849569582295 -5.8707537688655735
H 9.052207426376638 -12.760039953707397 -5.860508823960625
H 8.291034841300718 -13.741255130653864 -4.97204479831932
O -16.490616090648967 1.4766674053489401 -5.961812292258159
H -17.18149325026136 1.5729687273534694 -6.63440590106373
H -16.766093569649456 2.079887091090303 -5.2552713425619455
O 4.432280635514843 16.778042496380262 6.521271080677133
H 4.803896765418289 16.38539053430892 7.325443478597574
H 4.950100645715535 16.379868212835806 5.8055325660926425
O 3.7844198202221033 6.969126488383886 -4.66723695168715
H 4.147366748667832 7.447836674223069 -3.9069255404840657
H 3.8570883887271603 7.601136190850535 -5.398157576269221
O -8.318126012664187 -1.5286730752534998 -17.965499614995743
H -8.606377954616361 -1.417598513618688 -17.047054942400578
H -8.950605973217131 -1.0000284977511473 -18.47487762244827
O -4.444188313315873 -3.3637081592591005 8.24372988833118
H -4.610983329744974 -3.3875692351070494 9.197971696498165
H -5.270914883250758 -3.6849786479646616 7.853511493133585
O 16.22381124225911 -0.7333295226939711 7.9491455350037565
H 15.403375802665956 -0.72951114011037 8.46474078935937
H 16.920884438005988 -0.657100220962362 8.61790557988439
O 1.1291079036148712 -20.666046761333554 -5.1848810417418125
H 1.1078314278797627 -20.456462587079063 -6.130708268238468
H 2.0438588018119663 -20.480514371798677 -4.924553419348252
O 16.842689861532016 -1.6644619434403127 -14.424423136370594
H 16.93563736848816 -1.7310846803610147 -15.38665467232015
H 17.11847224406621 -2.535552361940428 -14.101766190713047
O 5.973682821825207 4.885688252607258 11.92626829003427
H 6.4637092615491625 4.0573436119970845 12.038903105450588
H 5.113819027199954 4.6036997632774135 11.579744566635528
O -7.5374106401369705 13.379927405292978 9.455972448899745
H -7.629173527243905 13.394752645370204 8.491437772640536
H -7.831166462722934 14.260918323902615 9.732603000943783
O -1.4718234816709836 7.268247872661453 -7.565780857496816
H -2.084335059392738 7.003123791350754 -8.268280783166539
H -1.8911104221768076 6.943502843562907 -6.754793143719937
O -11.641586265854436 13.363214792534691 6.138828154180778
H -12.411150870546297 13.369654184484572 6.727637300115839
H -12.002845875779837 13.624917796079101 5.278615984729321
O 5.251304484372089 -3.3173459945858452 -19.995145283658147
H 4.444884421394377 -3.657143316710261 -20.411308495396163
H 5.024435136677023 -2.406625295018637 -19.754147253051606