194

C -5.0710522388059704 1.0783507462686561 0.47044029850746183
C -3.8153522388059704 0.1782507462686569 0.19534029850746193
C -4.11845223880597 -1.3219492537313435 0.5608402985074619
C -2.96945223880597 -2.3874492537313436 0.7034402985074619
C -2.52015223880597 0.7359507462686565 0.7384402985074618
C -2.20305223880597 0.7852507462686571 2.097440298507462
C -1.5755522388059702 1.205650746268656 -0.18965970149253808
C -0.9533522388059701 1.2695507462686564 2.508640298507462
H -2.91125223880597 0.4298507462686567 2.840840298507462
C -0.32655223880597006 1.6562507462686575 0.21554029850746192
H -1.7850522388059702 1.178550746268657 -1.2573597014925382
C 0.004447761194029898 1.6956507462686563 1.569740298507462
H -0.7158522388059702 1.2676507462686573 3.5705402985074617
H 0.3943477611940298 1.9193507462686572 -0.5551597014925382
C -1.76045223880597 -2.1592492537313435 -0.1734597014925381
C -0.5287522388059701 -1.936549253731343 0.464840298507462
C -1.8068522388059702 -2.121249253731343 -1.5681597014925381
C 0.6114477611940299 -1.614449253731343 -0.2582597014925381
H -0.4544522388059702 -1.954049253731343 1.5506402985074619
C -0.6479522388059701 -1.8270492537313432 -2.2998597014925384
H -2.74345223880597 -2.290549253731343 -2.092259701492538
C 0.5698477611940298 -1.5506492537313434 -1.6506597014925382
H 1.5072477611940298 -1.351949253731343 0.2991402985074618
H -0.7173522388059701 -1.7640492537313435 -3.3840597014925375
C 1.7791477611940298 -1.082849253731343 -2.4255597014925376
H 1.4739477611940297 -0.9102492537313429 -3.464259701492538
H 2.1252477611940295 -0.1337492537313434 -2.0010597014925384
C 1.3965477611940298 2.0964507462686566 1.997440298507462
H 1.51704776119403 1.8448507462686567 3.057640298507462
H 2.1256477611940294 1.5207507462686571 1.4165402985074618
C 3.94864776119403 -1.4275492537313434 -3.522959701492538
H 4.81734776119403 -2.087049253731343 -3.615159701492538
H 3.4305477611940303 -1.3641492537313429 -4.484459701492538
H 4.26984776119403 -0.441449253731343 -3.176459701492538
C 2.60904776119403 -3.4296492537313434 -2.8992597014925376
H 1.9825477611940296 -3.869549253731343 -2.119359701492538
H 2.06294776119403 -3.373349253731343 -3.845759701492538
H 3.5215477611940305 -4.019849253731343 -3.0234597014925377
C 3.7281477611940304 -2.060049253731343 -1.156659701492538
H 3.9048477611940298 -1.032549253731343 -0.8295597014925382
H 3.12924776119403 -2.623249253731343 -0.4404597014925382
H 4.68244776119403 -2.5769492537313434 -1.3005597014925383
C 3.1110477611940297 3.755250746268656 2.588740298507462
H 3.40124776119403 4.809350746268656 2.534540298507462
H 2.9823477611940303 3.461750746268656 3.634840298507462
H 3.86514776119403 3.1392507462686563 2.091540298507462
C 1.99744776119403 3.9574507462686572 0.40494029850746194
H 2.67914776119403 3.230350746268657 -0.04295970149253803
H 1.03214776119403 3.981150746268657 -0.10175970149253821
H 2.4399477611940297 4.958250746268657 0.368240298507462
C 0.7418477611940297 4.4992507462686575 2.475440298507462
H -0.18475223880597014 4.424250746268656 1.901240298507462
H 0.57844776119403 4.189650746268656 3.511940298507462
H 1.1210477611940297 5.524350746268658 2.4432402985074617
N 3.00114776119403 -2.025349253731343 -2.490159701492538
N 1.7831477611940298 3.586450746268657 1.862540298507462
C -3.55075223880597 -3.8435492537313434 0.6444402985074619
H -2.62515223880597 -2.2736492537313433 1.7424402985074618
H -4.67195223880597 -1.3478492537313436 1.5102402985074619
H -4.83415223880597 -1.6757492537313432 -0.1945597014925382
H -3.7169522388059697 0.17335074626865676 -0.900559701492538
H -3.9132522388059705 -4.043149253731343 -0.34225970149253815
H -4.35435223880597 -3.9354492537313432 1.3449402985074619
H -2.78115223880597 -4.545049253731343 0.8904402985074619
H -5.24235223880597 1.138950746268657 1.5249402985074618
H -5.92805223880597 0.6501507462686567 -0.006059701492538094
H -4.89895223880597 2.059650746268657 0.08004029850746197
C 1.0902999197965895 -3.194056814269194 2.80058999673164
O 0.47796003148742594 -4.249761847219769 2.8485716931204315
O 1.5883223075993018 -2.704963093070002 1.780103594455347
O 1.3067171948273666 -2.4514151246781632 3.7651081501894335
O 0.9513218655156863 -8.351554424330281 -5.581578351053774
H 1.1601829281115084 -7.979554923749335 -4.7115434178477145
H 1.7410745664442806 -8.863049322672111 -5.813150336937801
O -1.2494127620690612 9.364369004495561 -0.01150569132480106
H -0.6392698262166749 8.927326212892838 -0.6244384388897603
H -1.8155640333917904 9.90019520689831 -0.5871140330801168
O 3.081920314559334 -6.468685615935337 10.428033294612277
H 3.9250952379513575 -6.441071626872621 10.904752156281186
H 2.674139070924621 -5.611761096968598 10.623882140494374
O 0.29484588661684413 -5.779559097167617 7.0680134428850145
H -0.3916277131934515 -5.832008596773399 6.386126059474382
H 0.16968900244946378 -6.587113045090754 7.588738245289573
O -8.094305050527318 -1.1542791600848465 -0.7392858172449719
H -7.965262975549692 -1.3244020241799954 0.20589866786760835
H -7.20758278165577 -1.251378130426275 -1.1177793471050332
O -9.57341976429784 -4.836144923254761 2.992694624326568
H -9.54091899887481 -4.530935468925431 2.0735873149579005
H -8.899320365843447 -4.3030560624638206 3.440319703834007
O -1.7820539720695159 5.6015013059134215 10.463794638838845
H -2.1615798402956576 6.4633149058715444 10.692278316974537
H -1.9796827197710236 5.047200140831131 11.23363555797107
O 6.004393723743028 6.432449452616079 0.30303168116916623
H 6.118785991588212 5.769461204608043 -0.39434077954352365
H 6.908929303530737 6.70840183047162 0.5142841707497268
O -2.5972523242337076 0.5309061605074454 -6.324178246721779
H -2.5507945633725653 0.9913334868864543 -5.472817153836248
H -1.8867497911317985 -0.12608274397003427 -6.274041691701997
O 8.789023989616766 1.3613964475275817 -0.8414324131571017
H 8.740349808486126 1.3458564652782332 -1.8090876668207978
H 8.002947212017224 0.8698443410722345 -0.5596137291455003
O -9.617300725717126 4.462434153776838 5.014821331909174
H -8.790390581204736 4.833452861222711 5.357650864662254
H -9.342586924985792 3.641941841388568 4.57860276593623
O 6.609273860300711 -5.872392507166692 4.153233691710915
H 6.9865861233649955 -5.379855922881361 3.408914858023463
H 5.684106562828551 -6.0081910832754035 3.8990956136609953
O -0.014073279116697757 -3.111279819742502 -6.8172324279032575
H 0.9048529833212113 -3.409781862858349 -6.890978013246117
H -0.19455241080646157 -3.142154673672632 -5.865688434848128
O 1.4505671326147915 -8.189748904189656 -0.3167638922180904
H 1.4900700226700894 -8.804888056208595 0.430906290570217
H 2.186776577020361 -8.463497126008892 -0.8842315206506273
O -8.651018918064256 -0.7939091313958625 2.73528879408099
H -7.924977727107707 -0.32238531955430905 2.2999764455301968
H -9.394915956350664 -0.6954911872615799 2.12218762053694
O -9.598164319545912 -3.154623177699329 9.776927215901171
H -9.561849249115363 -3.498863561786415 8.871859742989235
H -8.900655822997162 -3.6417410326087447 10.240780680877718
O -1.247149354685468 0.31274656969417725 5.479727446406125
H -1.4710437280514856 -0.5605432719492289 5.834978792578767
H -1.085254396109319 0.8518186007108852 6.268494403157705
O -6.732743220680463 -7.715382716258836 3.9989419120579197
H -5.796810070686279 -7.711823209384378 3.7479761264361047
H -6.897889664469446 -6.809140718189529 4.299631182467095
O 1.832757833060517 9.873323770826952 -0.8451792266081011
H 1.7269475250555306 9.595122151320616 0.0769787829130133
H 2.415285059909381 10.645796980453733 -0.7912430171688667
O -8.783785134205662 -3.9599759927568794 -2.698299526777541
H -8.85552538910979 -3.9554919879782235 -3.664633106048922
H -7.89158218753161 -3.6223015250473147 -2.5282648241336383
C 17.22254953962073 7.409739731612085 -5.145827869748377
O 18.117752914037865 6.826214095905171 -5.685204369241092
O 16.32734616520359 7.993265367318999 -4.606451370255664
O -4.816248623780317 12.534030812704517 9.764504711628698
H -5.157259352191156 12.582256270810728 8.858771116580378
H -4.849507147020828 11.589231009320942 9.9771291374556
O 17.049263284138664 4.486288369461188 -5.3547296493352174
H 17.60553711859086 4.823988853046014 -6.072702602440302
H 16.228345913687363 4.224465319119459 -5.798018838805332
O -8.327248791375746 1.2054235795423076 -10.234502742051466
H -9.069722815911986 0.9878137989576699 -9.651111224129867
H -8.42135607696509 2.1575691426468193 -10.387880021201273
O -13.666703517696591 16.47283410545665 -4.472428457798777
H -13.743441794321996 15.837468895927477 -3.744836783629456
H -12.934365789194105 16.129934821414047 -5.006341818480914
O -4.147772594573889 1.2815015833808414 15.69008182511504
H -4.312972396121539 2.034578784238917 15.103097062096117
H -3.3252819959361424 0.8969269017374464 15.351594788891491
O 17.8725164952303 4.653341707898812 12.165934539821759
H 17.769693604083322 4.475168282740771 11.219018999489025
H 18.68819174619331 4.187796084481653 12.404478250247237
O 11.527251429629121 1.3576102972788062 -6.686366744514324
H 11.109309275312459 0.9680009651844239 -7.468988160583497
H 12.030951418041223 0.6250521109924918 -6.300871258576351
O 14.044902762362229 8.555928438965674 -8.939649494978307
H 13.218949122159026 8.997981446983601 -8.691945883302218
H 14.570725545297915 8.56931509531434 -8.125835546537035
O 8.62939481407332 11.216801348137803 -14.72556226914849
H 8.910393118860426 10.872339948074558 -13.864543306829283
H 9.344880473028304 11.817862082559094 -14.982015402618707
O 8.198901111962664 6.5723149374498515 8.282764538639384
H 8.497670559340065 6.648365299359316 9.201416005011282
H 8.948834919389878 6.162643475017077 7.825894183236548
O -1.8639552877776744 -11.525265942987213 5.666060399009981
H -2.0643260812856585 -11.19590889189789 6.55507267952512
H -2.6962027921787 -11.414394040457914 5.182290353484428
O -11.847682706534583 -9.898911904628642 0.43732795435524086
H -12.073174821026523 -9.620816426306245 1.3377631647610715
H -11.810720532605835 -9.069050326999374 -0.061596392588386006
O 1.4649354563096249 5.401438416063776 12.57772072474296
H 1.626452031250567 5.717845423099359 11.676185168695316
H 1.3608726485295377 4.443589638333207 12.474480251395637
O 8.673141843329203 -3.8524769858729293 15.661660931144011
H 8.694077537713063 -3.852254156316747 14.692883864968486
H 7.931030232110032 -4.436201238598067 15.879601972653326
O 6.1168098863517155 14.179318066680969 -9.738824747444415
H 5.644448906049781 13.751168427480941 -9.009077977913307
H 6.779863491870313 13.524568695830745 -10.004578622072845
O 5.1415944179893165 8.877556487240048 11.509401481980188
H 5.120477203263766 8.95961761861982 12.47469283222575
H 4.96748998115658 9.777151629727252 11.19415845035445
O 5.982200772629339 -7.842885678775841 -5.791659200573145
H 5.166044062414363 -7.9764033453788485 -5.286655622391802
H 5.781195242657838 -8.214251893580938 -6.663809334278467
O 6.837979689353958 0.9380656107746259 5.752091054087133
H 6.8872599625789075 0.9388692699293841 6.719840074082937
H 7.76198578862453 1.015167613671661 5.470612895147502
O -1.0705407587750986 -11.225130820993506 8.373851683585876
H -0.4310986709649314 -11.610412993467119 8.991620913000057
H -1.8716269998370376 -11.111162936345176 8.90698778248562
O 3.2451648829777575 4.0615827439383265 8.232998763901774
H 2.7945930287361294 4.868979692460032 7.9430633769910015
H 3.6334090311956286 3.7053167221850916 7.419793410120393