194

C -5.0710522388059704 1.0783507462686561 0.47044029850746183
C -3.8153522388059704 0.1782507462686569 0.19534029850746193
C -4.11845223880597 -1.3219492537313435 0.5608402985074619
C -2.96945223880597 -2.3874492537313436 0.7034402985074619
C -2.52015223880597 0.7359507462686565 0.7384402985074618
C -2.20305223880597 0.7852507462686571 2.097440298507462
C -1.5755522388059702 1.205650746268656 -0.18965970149253808
C -0.9533522388059701 1.2695507462686564 2.508640298507462
H -2.91125223880597 0.4298507462686567 2.840840298507462
C -0.32655223880597006 1.6562507462686575 0.21554029850746192
H -1.7850522388059702 1.178550746268657 -1.2573597014925382
C 0.004447761194029898 1.6956507462686563 1.569740298507462
H -0.7158522388059702 1.2676507462686573 3.5705402985074617
H 0.3943477611940298 1.9193507462686572 -0.5551597014925382
C -1.76045223880597 -2.1592492537313435 -0.1734597014925381
C -0.5287522388059701 -1.936549253731343 0.464840298507462
C -1.8068522388059702 -2.121249253731343 -1.5681597014925381
C 0.6114477611940299 -1.614449253731343 -0.2582597014925381
H -0.4544522388059702 -1.954049253731343 1.5506402985074619
C -0.6479522388059701 -1.8270492537313432 -2.2998597014925384
H -2.74345223880597 -2.290549253731343 -2.092259701492538
C 0.5698477611940298 -1.5506492537313434 -1.6506597014925382
H 1.5072477611940298 -1.351949253731343 0.2991402985074618
H -0.7173522388059701 -1.7640492537313435 -3.3840597014925375
C 1.7791477611940298 -1.082849253731343 -2.4255597014925376
H 1.4739477611940297 -0.9102492537313429 -3.464259701492538
H 2.1252477611940295 -0.1337492537313434 -2.0010597014925384
C 1.3965477611940298 2.0964507462686566 1.997440298507462
H 1.51704776119403 1.8448507462686567 3.057640298507462
H 2.1256477611940294 1.5207507462686571 1.4165402985074618
C 3.94864776119403 -1.4275492537313434 -3.522959701492538
H 4.81734776119403 -2.087049253731343 -3.615159701492538
H 3.4305477611940303 -1.3641492537313429 -4.484459701492538
H 4.26984776119403 -0.441449253731343 -3.176459701492538
C 2.60904776119403 -3.4296492537313434 -2.8992597014925376
H 1.9825477611940296 -3.869549253731343 -2.119359701492538
H 2.06294776119403 -3.373349253731343 -3.845759701492538
H 3.5215477611940305 -4.019849253731343 -3.0234597014925377
C 3.7281477611940304 -2.060049253731343 -1.156659701492538
H 3.9048477611940298 -1.032549253731343 -0.8295597014925382
H 3.12924776119403 -2.623249253731343 -0.4404597014925382
H 4.68244776119403 -2.5769492537313434 -1.3005597014925383
C 3.1110477611940297 3.755250746268656 2.588740298507462
H 3.40124776119403 4.809350746268656 2.534540298507462
H 2.9823477611940303 3.461750746268656 3.634840298507462
H 3.86514776119403 3.1392507462686563 2.091540298507462
C 1.99744776119403 3.9574507462686572 0.40494029850746194
H 2.67914776119403 3.230350746268657 -0.04295970149253803
H 1.03214776119403 3.981150746268657 -0.10175970149253821
H 2.4399477611940297 4.958250746268657 0.368240298507462
C 0.7418477611940297 4.4992507462686575 2.475440298507462
H -0.18475223880597014 4.424250746268656 1.901240298507462
H 0.57844776119403 4.189650746268656 3.511940298507462
H 1.1210477611940297 5.524350746268658 2.4432402985074617
N 3.00114776119403 -2.025349253731343 -2.490159701492538
N 1.7831477611940298 3.586450746268657 1.862540298507462
C -3.55075223880597 -3.8435492537313434 0.6444402985074619
H -2.62515223880597 -2.2736492537313433 1.7424402985074618
H -4.67195223880597 -1.3478492537313436 1.5102402985074619
H -4.83415223880597 -1.6757492537313432 -0.1945597014925382
H -3.7169522388059697 0.17335074626865676 -0.900559701492538
H -3.9132522388059705 -4.043149253731343 -0.34225970149253815
H -4.35435223880597 -3.9354492537313432 1.3449402985074619
H -2.78115223880597 -4.545049253731343 0.8904402985074619
H -5.24235223880597 1.138950746268657 1.5249402985074618
H -5.92805223880597 0.6501507462686567 -0.006059701492538094
H -4.89895223880597 2.059650746268657 0.08004029850746197
C 0.7148625732803744 -1.386935738238778 3.433923111690223
O 0.850754077369064 -2.564021695390897 3.7301960385529265
O 0.09667644384883123 -0.5506621670845855 4.10259634105376
O 1.1745061697228565 -0.8498577591279445 2.419564500052483
O 10.5872599712404 5.956576103648704 -3.228025026667187
H 11.094473922531492 6.615001808808463 -2.7298514070318687
H 10.184423852600386 6.466359229248479 -3.9469173486965525
O -1.2251951820778662 -4.986240431125716 8.170902109240949
H -1.207305125380751 -4.957125240333488 9.139302650564893
H -0.9133836049208311 -5.87860188570548 7.957767130809136
O -4.8591964533374785 -3.2001081798151794 4.346418711460071
H -4.656713456119064 -3.338074175399846 5.28393317897499
H -4.212301446609119 -3.753347014004442 3.883368404349906
O -1.2426058207720252 1.962200187997699 5.850498498394508
H -1.0881954431667737 2.203056384057382 6.776302519236643
H -2.090310661489819 2.3807762773256456 5.638007310891255
O 0.0674089773881178 6.089655289860054 -3.2474512001093085
H -0.2010162040677112 6.242926610410615 -4.165831938777696
H 0.6589192329632575 6.8312334785289215 -3.049614520143143
O 6.565754200751561 4.120762463731528 -0.9963165374479538
H 6.79157377029219 3.4845592182534353 -1.6914555950153067
H 5.672807969425193 4.415686556359394 -1.230044481536086
O -8.167751350975015 3.7127531559107494 2.853737903504518
H -8.845964126728573 3.8837327910743094 2.1830958588458254
H -7.348901824613913 3.628888524639716 2.3424511726968715
O 3.1703695163967844 7.099199823000063 -6.468505016817693
H 2.5391150096184005 6.370366445236535 -6.372135872223645
H 2.6306676850589645 7.834607638892302 -6.795398305025343
O -0.044007464315131806 1.1229031201883815 -9.329945520155349
H -0.6050655025894667 1.6597322298774757 -8.750294123557211
H -0.6002284811657188 0.9568816591612115 -10.105843064417543
O 7.650827700770948 6.665138788847424 1.8987553559709935
H 6.905648702939937 6.870499397484452 1.3143730850970399
H 7.692765274648214 5.697062241688377 1.8931891150577012
O -5.510868772260969 6.109688663959332 -0.32770101370530447
H -6.240474878821943 6.684962593237585 -0.6028413278391986
H -4.83353198402876 6.725992612646385 -0.010926231817575793
O -6.73512050707408 3.8857830289599753 -0.028050377560283835
H -7.326571332823686 3.1435550811123187 -0.22362888111823143
H -7.32897893961628 4.64927753665114 0.030003417526226706
O -2.0041993197339014 -9.657360862027126 -0.856479860052747
H -1.2780637000177753 -9.751400507632864 -0.221774445128764
H -1.6072323134995479 -9.905868471039454 -1.7047858829739027
O 1.3491339300041267 2.4951472793346947 -3.773711149958097
H 0.7000053315022332 1.8393065526903223 -4.069468416617006
H 1.5909615530177321 2.1999476689259536 -2.8830156155232847
O -5.115500456965695 8.102918275630543 4.111488211083762
H -6.019339567472709 8.347522905763832 4.360909128681396
H -4.669579056184947 7.958610824091248 4.959598703918257
O 7.952004777544176 -2.217847892964085 -5.9820873356686395
H 7.04029547573632 -2.4442204829199468 -6.219803461359991
H 7.907255430762019 -1.2777125036040387 -5.751642353220763
O 8.51302730765754 -1.0364529969667537 -0.7334821475674065
H 9.053569056994268 -1.0333146675204916 0.0707392927164725
H 9.15707389213782 -1.1536675921586754 -1.4479236637136046
O -8.225441373531918 5.784003688507841 3.3751701722868437
H -8.179091357566383 6.694994563456546 3.702148242927967
H -9.174914303313397 5.620563692477945 3.2714857105294484
O 2.597575265970372 -6.643366031229966 5.116035769619861
H 3.332045382267604 -7.225572341834348 4.869952822102635
H 1.8881794150073692 -6.889922752095003 4.5037211002440936
O 0.4975824417810514 -0.6281023601762403 8.336300775648834
H 0.9109483661284309 -0.6685820601727521 7.46082526863757
H -0.033390794148862854 -1.4373822165459538 8.382077200807762
C -12.229086811923326 11.659030094917064 7.450936383587045
O -12.401767733460549 10.494042790965697 7.664955397389976
O -12.056405890386104 12.824017398868433 7.2369173697841145
O -7.086897595345871 -14.74904575417041 -5.135167958737721
H -7.948402515274962 -15.188528704645577 -5.074907141620672
H -7.207357719111421 -14.093254981428565 -5.838296514031165
O 7.565225606208353 4.955379406043303 -7.42338475939216
H 6.955111680867212 5.633959074586874 -7.097412385648431
H 8.400210510050155 5.431275704919585 -7.547016743005429
O 6.511381281973047 -12.767223506630616 -10.788216529273384
H 6.068169896934518 -13.1304291188816 -10.006799413833996
H 6.920963204415323 -11.950143694571214 -10.466370022637907
O 2.464785205055016 4.224337984488283 13.875671297961134
H 1.769217547589912 4.863334655254485 14.092088130805116
H 2.158736387514467 3.8150938238591747 13.05237591805608
O 10.589702465495483 9.683482343093578 -9.702290599986421
H 9.746598655676507 10.095572558596494 -9.460784953974807
H 11.127696482954295 10.42238581908307 -10.024076296761736
O 6.743885510019901 1.2387553917439136 12.803161775793773
H 6.001574728200158 1.0982451000310305 12.19636780909921
H 7.3345343430791505 0.49092231261856734 12.627544048694114
O 12.949879789321937 6.701035518834322 10.541313385946893
H 12.976688987552087 6.985885048278309 11.467115400076153
H 13.796156526521324 7.003320830492875 10.178820325695186
O 15.348737391139965 0.5879689902745664 5.777345796090847
H 15.05552045373277 0.3305580521450455 6.6643242588783185
H 14.98869973742693 1.4801135969508223 5.661532010265145
O 3.9348225574345235 14.48789238395503 7.882194102051793
H 4.727760806017148 14.886108879766594 8.271603800567744
H 3.237453008386889 15.138150810064623 8.05482560449145
O -16.297396954271893 -4.890097908764339 7.941808344088409
H -16.118344246060865 -5.149685845304374 8.858062450646838
H -16.505149630571605 -3.945576413989682 8.002470652806007
O -1.2701222104248373 -12.469949725788354 13.488925391725648
H -1.9908979541978677 -12.503227716061378 14.135719222441296
H -1.7215444192637115 -12.51699406116035 12.632790610177533
O 3.276941216868915 14.890267610769836 -3.422904939398051
H 3.4359892800809653 13.935147955520527 -3.3852550437151088
H 2.7560938261648626 15.00912817786695 -4.231330635109248
O 10.250772245136325 -1.6075881830171352 -8.963755914541494
H 11.08653537751995 -1.165456301395872 -8.75165513023754
H 10.063702228324509 -1.3306199190992758 -9.8732916938775
O 3.884165279471169 0.23576028659322867 9.084991028375349
H 4.7586757939548 0.5781853847267509 8.846362092313889
H 3.5829290374401808 -0.21640469508322413 8.282641042314044
O -8.091868477689163 6.928531822016824 -5.627215073289669
H -8.442789872719157 6.058124382043141 -5.385942572061983
H -7.432750569741382 7.113467674425807 -4.941413164414882
O 8.236688465585045 18.923763756095063 6.159924234467399
H 8.583272150313379 19.68212423935433 5.666227481580662
H 7.275050824014162 19.011925060127485 6.079658581256994
O -16.007670025409396 -11.427018337426563 5.500551829017191
H -16.0041905851974 -10.587810107253647 5.0161090596358635
H -15.400871734973006 -11.990373148601453 4.99717410230535
O -1.7486866936901284 -0.27274565521591365 -13.050098957665023
H -2.4866026660136296 0.24160543014572614 -13.410501976072425
H -0.9642495235098507 0.13062467929232463 -13.451238139967462
O 13.104106685952935 -2.7371108774871225 2.5332673547843942
H 14.00908727721334 -2.5701422770346065 2.836745480528082
H 12.774125163639741 -1.8598604781231762 2.287287932783969
O 19.191913685892874 4.620071089450366 1.894329349657474
H 19.43617473586253 4.480610994006828 2.82161289752544
H 18.250965854667612 4.848464936260731 1.9319508056585577