194

C -5.0710522388059704 1.0783507462686561 0.47044029850746183
C -3.8153522388059704 0.1782507462686569 0.19534029850746193
C -4.11845223880597 -1.3219492537313435 0.5608402985074619
C -2.96945223880597 -2.3874492537313436 0.7034402985074619
C -2.52015223880597 0.7359507462686565 0.7384402985074618
C -2.20305223880597 0.7852507462686571 2.097440298507462
C -1.5755522388059702 1.205650746268656 -0.18965970149253808
C -0.9533522388059701 1.2695507462686564 2.508640298507462
H -2.91125223880597 0.4298507462686567 2.840840298507462
C -0.32655223880597006 1.6562507462686575 0.21554029850746192
H -1.7850522388059702 1.178550746268657 -1.2573597014925382
C 0.004447761194029898 1.6956507462686563 1.569740298507462
H -0.7158522388059702 1.2676507462686573 3.5705402985074617
H 0.3943477611940298 1.9193507462686572 -0.5551597014925382
C -1.76045223880597 -2.1592492537313435 -0.1734597014925381
C -0.5287522388059701 -1.936549253731343 0.464840298507462
C -1.8068522388059702 -2.121249253731343 -1.5681597014925381
C 0.6114477611940299 -1.614449253731343 -0.2582597014925381
H -0.4544522388059702 -1.954049253731343 1.5506402985074619
C -0.6479522388059701 -1.8270492537313432 -2.2998597014925384
H -2.74345223880597 -2.290549253731343 -2.092259701492538
C 0.5698477611940298 -1.5506492537313434 -1.6506597014925382
H 1.5072477611940298 -1.351949253731343 0.2991402985074618
H -0.7173522388059701 -1.7640492537313435 -3.3840597014925375
C 1.7791477611940298 -1.082849253731343 -2.4255597014925376
H 1.4739477611940297 -0.9102492537313429 -3.464259701492538
H 2.1252477611940295 -0.1337492537313434 -2.0010597014925384
C 1.3965477611940298 2.0964507462686566 1.997440298507462
H 1.51704776119403 1.8448507462686567 3.057640298507462
H 2.1256477611940294 1.5207507462686571 1.4165402985074618
C 3.94864776119403 -1.4275492537313434 -3.522959701492538
H 4.81734776119403 -2.087049253731343 -3.615159701492538
H 3.4305477611940303 -1.3641492537313429 -4.484459701492538
H 4.26984776119403 -0.441449253731343 -3.176459701492538
C 2.60904776119403 -3.4296492537313434 -2.8992597014925376
H 1.9825477611940296 -3.869549253731343 -2.119359701492538
H 2.06294776119403 -3.373349253731343 -3.845759701492538
H 3.5215477611940305 -4.019849253731343 -3.0234597014925377
C 3.7281477611940304 -2.060049253731343 -1.156659701492538
H 3.9048477611940298 -1.032549253731343 -0.8295597014925382
H 3.12924776119403 -2.623249253731343 -0.4404597014925382
H 4.68244776119403 -2.5769492537313434 -1.3005597014925383
C 3.1110477611940297 3.755250746268656 2.588740298507462
H 3.40124776119403 4.809350746268656 2.534540298507462
H 2.9823477611940303 3.461750746268656 3.634840298507462
H 3.86514776119403 3.1392507462686563 2.091540298507462
C 1.99744776119403 3.9574507462686572 0.40494029850746194
H 2.67914776119403 3.230350746268657 -0.04295970149253803
H 1.03214776119403 3.981150746268657 -0.10175970149253821
H 2.4399477611940297 4.958250746268657 0.368240298507462
C 0.7418477611940297 4.4992507462686575 2.475440298507462
H -0.18475223880597014 4.424250746268656 1.901240298507462
H 0.57844776119403 4.189650746268656 3.511940298507462
H 1.1210477611940297 5.524350746268658 2.4432402985074617
N 3.00114776119403 -2.025349253731343 -2.490159701492538
N 1.7831477611940298 3.586450746268657 1.862540298507462
C -3.55075223880597 -3.8435492537313434 0.6444402985074619
H -2.62515223880597 -2.2736492537313433 1.7424402985074618
H -4.67195223880597 -1.3478492537313436 1.5102402985074619
H -4.83415223880597 -1.6757492537313432 -0.1945597014925382
H -3.7169522388059697 0.17335074626865676 -0.900559701492538
H -3.9132522388059705 -4.043149253731343 -0.34225970149253815
H -4.35435223880597 -3.9354492537313432 1.3449402985074619
H -2.78115223880597 -4.545049253731343 0.8904402985074619
H -5.24235223880597 1.138950746268657 1.5249402985074618
H -5.92805223880597 0.6501507462686567 -0.006059701492538094
H -4.89895223880597 2.059650746268657 0.08004029850746197
C 3.1906332077342636 2.2414626721411146 -3.3750247407660035
O 2.1308630433026448 2.4536958814819925 -2.806148864995681
O 3.3897516991156316 1.3401857941270017 -4.197632350533347
O 4.227997183477771 2.8951294197816573 -3.216140665860249
O 1.516514200329631 -4.437855651646899 0.42948035887031155
H 1.222712877553278 -4.015765635739112 1.2507526389978163
H 1.850557458169149 -5.301009223531597 0.716434985134893
O -0.5721882152293469 8.397606339230299 2.3384196731231826
H -1.0755367448704725 7.791498294358135 2.902547896623267
H -0.42575084925628204 7.892620782684487 1.524473956366232
O 1.1223122799833045 10.000078715434203 -2.677633093105979
H 1.446409935553739 9.246158120322743 -3.192930873831388
H 1.8965738104199206 10.576723579754438 -2.594196127442985
O -1.9716613833420085 3.8581460100546496 -5.198043757464441
H -1.6105241610210088 2.959295508024479 -5.1732437866099215
H -2.442679604712672 3.9444701177808006 -4.3556353482815195
O -0.08510210373462662 2.1203441321136407 -7.730468929933184
H 0.02044522426613049 2.53390277721749 -8.600409367843602
H 0.08210969523647782 1.1803977799478362 -7.896309255653567
O -5.382898206393749 6.2561765743271325 -3.969331562587649
H -5.208648948663273 6.332152522208528 -4.919506393039342
H -4.5364344455507215 5.964426049826649 -3.5987338327873037
O -1.3093772882582608 7.592922452069195 -3.357796584642191
H -0.6620110957532828 8.14560636569498 -3.8208569061132653
H -2.1590285691442648 7.8550887812108705 -3.7429244349116177
O 2.0882976192829554 -8.514789681480277 0.7339399726353141
H 1.9103736194245196 -7.6014828795203835 1.0044600137933888
H 1.28746407034508 -8.995527353833594 0.9918524802340759
O 7.607143728021728 3.86779788068763 -4.43868847055964
H 7.617507294015929 3.6030875101483395 -3.506600291722017
H 7.291247516308133 4.783636429341138 -4.418408418162429
O -6.413651239179195 3.002879844747775 -4.1642112382571534
H -6.061279106226491 2.415757274673038 -3.4785813639611187
H -7.176833198164289 3.4246682849593237 -3.741588766678106
O -5.127029946037291 -7.378690988248751 -2.2463603263244853
H -5.251560533501118 -7.655932325594389 -3.1664672388910176
H -4.561612604716074 -8.068923412824272 -1.8684127446443763
O 9.452376024178708 0.9702217438954004 -0.17552421062400425
H 8.896433560413946 1.615714785607512 0.2862485332494451
H 10.302403534385686 1.4240636354470961 -0.27771380727702777
O -2.802596315711791 8.016976430677193 1.8260579448006364
H -3.3368838319438137 7.596311421744966 1.1357354425173445
H -3.243666600348958 7.763128568972704 2.6506670712467035
O -0.3039782677754109 -5.846733610529196 6.599062164444754
H -0.08557452283338746 -5.0466714452864565 6.097895831933881
H 0.0693971217988516 -6.565409869752214 6.0670309649935605
O 0.22471191838529436 6.969052577330563 5.556192540290722
H 1.1159701806621727 6.729143219813304 5.851268067908408
H 0.13910313541462527 7.901780375402492 5.804490617774569
O -2.9712732986487866 0.03239769344427433 6.01374455095775
H -2.6812631203949686 -0.8257376497238398 5.66955683151539
H -2.5915661311751457 0.06772691562236598 6.904551071662126
O -6.732568041781734 6.942804954264571 -1.6669268369656676
H -6.6615008084634955 7.845997809099877 -1.3231835137971437
H -5.883734056579455 6.53679277116883 -1.4354167571776664
O 6.368554930069471 -0.5476935424850791 -5.263851381784929
H 6.122948813589758 -0.4919310399659185 -6.199551940596643
H 5.621409153688194 -0.13961086918380256 -4.801029963863392
O -3.6605349936986524 -7.117645721597457 5.788147178361783
H -3.39546845313593 -7.353949054266104 4.886555352232129
H -3.541905009539988 -6.156554660807398 5.822684752508703
O 5.375001193929817 -5.078694888113185 0.6791601789591515
H 5.812968687618207 -4.991881694214172 1.53916907469068
H 4.436101426043221 -5.1658781676554 0.9023825925532121
C -7.847004953091497 9.204162678158866 -17.167058649056482
O -8.285445370366139 8.992233772959228 -16.0735896751295
O -7.408564535816854 9.416091583358504 -18.26052762298346
O -2.6413569749673824 12.700536029201375 8.629535873096536
H -2.265211081049994 13.12161536064755 7.842024717608606
H -3.047637019367067 13.433804423126915 9.11555637913764
O -6.928849107980021 -7.101721786630553 -6.468843986431104
H -7.280198092923246 -6.201670488180708 -6.542525109102472
H -6.798287490271825 -7.2247901411311695 -5.516599381089636
O 16.977548320817434 -3.049550393656845 -1.0260637865978959
H 17.38874563429161 -2.7416783959574884 -0.20441972782047912
H 16.328443693918025 -3.7058695783409505 -0.7313261821878498
O 1.7839047536975219 21.568651814258505 -3.339157712407369
H 1.951924559472336 22.350642908084307 -2.7921415966077285
H 2.662481932919552 21.31284641233507 -3.657948679652441
O 11.74106329355861 -11.362465397383898 5.05221182386637
H 12.053829017418803 -11.600435599496329 4.166483230117258
H 11.11413527241323 -10.64094676207474 4.893045057535112
O 13.43354839554661 10.895229854455511 1.3549398780264141
H 13.50495743005225 11.367623754046686 2.197977309176428
H 13.951820269595938 11.43516962934116 0.7394553141535041
O 7.157773179776658 -5.828796041839778 -9.144470713286106
H 7.899374973424187 -6.199082012781514 -8.64259180729134
H 7.554048038069311 -5.098579473991945 -9.643180994938357
O -11.240821259590291 10.233343663149832 -9.766159584595773
H -10.345271837359697 10.160470266799567 -9.403326210515015
H -11.401551256188007 11.188220069865624 -9.802750025850813
O -6.346842893062324 12.417987068937716 11.400188328698391
H -6.423270573211315 13.370884593469311 11.558657487680843
H -5.394560317198433 12.24727649789576 11.454757009647823
O 11.308484042222657 -5.092785342910144 9.028097858047369
H 10.3609953867733 -5.106036136940902 8.825472535956763
H 11.352450606156573 -5.357675715145951 9.959152086464073
O -12.161336351345016 7.728654482188057 -6.3813255828539655
H -12.590199552991624 7.672526132465315 -5.514207759527271
H -11.78830752608922 6.844473804476616 -6.515623643115528
O -0.9996560648278177 16.915821155724355 3.9017407050673016
H -0.3815906729239922 17.402246202363724 4.467738233535987
H -0.5226976880067404 16.10214370632921 3.6794758643344263
O -12.142303506993123 3.9721407476741533 1.920297262068269
H -12.088800845856092 3.7524554423567458 2.8625515742254777
H -11.677912508957156 3.2426228821938663 1.4831398199627444
O 6.663674279356949 2.2741560744061777 2.3925099925648343
H 5.856181422760358 2.3623141488815094 2.9208572243644166
H 7.060862245669422 3.1574911272065975 2.4228884094202265
O 4.237556763566335 -21.40747388621424 3.7688980666219027
H 3.9789044708781156 -21.801711608669933 4.615445741936219
H 4.09624569068129 -20.45784631129431 3.9000491014320637
O 21.080266257258195 1.5213077241398647 -11.534305736145765
H 21.253412056854383 1.4612334100576607 -12.485819774807176
H 21.360442160068 0.6597354352462705 -11.19056659261486
O 6.023622547736987 -8.10803583851516 -0.6503725038207935
H 5.7826605607528725 -8.914450638036877 -0.17016437306807752
H 5.904383941412245 -8.345989899333684 -1.582103132276094
O 2.1446522595227195 14.88381412742543 4.079818850874767
H 1.7253933715568937 15.699558631343239 4.392469208446203
H 2.6518230125755444 14.573232079630055 4.844853858658766
O -8.523021371729929 11.154247865297968 3.220361171231426
H -8.529808609353006 11.143167256788255 4.189277323651491
H -8.284125917771757 10.24708262647567 2.9775811558870853
O -4.067260249111202 4.91403568693271 19.03884902377757
H -3.6663227266074676 5.626490572830363 19.559064840058785
H -3.345647798085214 4.604026826814949 18.47128235679231