194

C -5.0710522388059704 1.0783507462686561 0.47044029850746183
C -3.8153522388059704 0.1782507462686569 0.19534029850746193
C -4.11845223880597 -1.3219492537313435 0.5608402985074619
C -2.96945223880597 -2.3874492537313436 0.7034402985074619
C -2.52015223880597 0.7359507462686565 0.7384402985074618
C -2.20305223880597 0.7852507462686571 2.097440298507462
C -1.5755522388059702 1.205650746268656 -0.18965970149253808
C -0.9533522388059701 1.2695507462686564 2.508640298507462
H -2.91125223880597 0.4298507462686567 2.840840298507462
C -0.32655223880597006 1.6562507462686575 0.21554029850746192
H -1.7850522388059702 1.178550746268657 -1.2573597014925382
C 0.004447761194029898 1.6956507462686563 1.569740298507462
H -0.7158522388059702 1.2676507462686573 3.5705402985074617
H 0.3943477611940298 1.9193507462686572 -0.5551597014925382
C -1.76045223880597 -2.1592492537313435 -0.1734597014925381
C -0.5287522388059701 -1.936549253731343 0.464840298507462
C -1.8068522388059702 -2.121249253731343 -1.5681597014925381
C 0.6114477611940299 -1.614449253731343 -0.2582597014925381
H -0.4544522388059702 -1.954049253731343 1.5506402985074619
C -0.6479522388059701 -1.8270492537313432 -2.2998597014925384
H -2.74345223880597 -2.290549253731343 -2.092259701492538
C 0.5698477611940298 -1.5506492537313434 -1.6506597014925382
H 1.5072477611940298 -1.351949253731343 0.2991402985074618
H -0.7173522388059701 -1.7640492537313435 -3.3840597014925375
C 1.7791477611940298 -1.082849253731343 -2.4255597014925376
H 1.4739477611940297 -0.9102492537313429 -3.464259701492538
H 2.1252477611940295 -0.1337492537313434 -2.0010597014925384
C 1.3965477611940298 2.0964507462686566 1.997440298507462
H 1.51704776119403 1.8448507462686567 3.057640298507462
H 2.1256477611940294 1.5207507462686571 1.4165402985074618
C 3.94864776119403 -1.4275492537313434 -3.522959701492538
H 4.81734776119403 -2.087049253731343 -3.615159701492538
H 3.4305477611940303 -1.3641492537313429 -4.484459701492538
H 4.26984776119403 -0.441449253731343 -3.176459701492538
C 2.60904776119403 -3.4296492537313434 -2.8992597014925376
H 1.9825477611940296 -3.869549253731343 -2.119359701492538
H 2.06294776119403 -3.373349253731343 -3.845759701492538
H 3.5215477611940305 -4.019849253731343 -3.0234597014925377
C 3.7281477611940304 -2.060049253731343 -1.156659701492538
H 3.9048477611940298 -1.032549253731343 -0.8295597014925382
H 3.12924776119403 -2.623249253731343 -0.4404597014925382
H 4.68244776119403 -2.5769492537313434 -1.3005597014925383
C 3.1110477611940297 3.755250746268656 2.588740298507462
H 3.40124776119403 4.809350746268656 2.534540298507462
H 2.9823477611940303 3.461750746268656 3.634840298507462
H 3.86514776119403 3.1392507462686563 2.091540298507462
C 1.99744776119403 3.9574507462686572 0.40494029850746194
H 2.67914776119403 3.230350746268657 -0.04295970149253803
H 1.03214776119403 3.981150746268657 -0.10175970149253821
H 2.4399477611940297 4.958250746268657 0.368240298507462
C 0.7418477611940297 4.4992507462686575 2.475440298507462
H -0.18475223880597014 4.424250746268656 1.901240298507462
H 0.57844776119403 4.189650746268656 3.511940298507462
H 1.1210477611940297 5.524350746268658 2.4432402985074617
N 3.00114776119403 -2.025349253731343 -2.490159701492538
N 1.7831477611940298 3.586450746268657 1.862540298507462
C -3.55075223880597 -3.8435492537313434 0.6444402985074619
H -2.62515223880597 -2.2736492537313433 1.7424402985074618
H -4.67195223880597 -1.3478492537313436 1.5102402985074619
H -4.83415223880597 -1.6757492537313432 -0.1945597014925382
H -3.7169522388059697 0.17335074626865676 -0.900559701492538
H -3.9132522388059705 -4.043149253731343 -0.34225970149253815
H -4.35435223880597 -3.9354492537313432 1.3449402985074619
H -2.78115223880597 -4.545049253731343 0.8904402985074619
H -5.24235223880597 1.138950746268657 1.5249402985074618
H -5.92805223880597 0.6501507462686567 -0.006059701492538094
H -4.89895223880597 2.059650746268657 0.08004029850746197
C 2.1793042084349414 -3.8038706957162605 1.7109173197586425
O 3.063762321482115 -4.117526713392267 0.9291697598387779
O 1.1464504422422457 -3.1940768316934918 1.4109239778962848
O 2.1802322852332425 -4.047715427299215 2.9230176744952847
O 6.377590888128287 -4.439691498604528 -3.5141493059050357
H 5.894500212058791 -5.278506158906293 -3.558654600618749
H 6.282103894325782 -4.067124100919514 -4.403552314949179
O 3.4202457392658716 2.5791111879280955 5.4761813988687
H 3.3066937461254775 2.263470363950098 6.3852711480092
H 4.343149337837042 2.368734580657423 5.268931368331515
O -4.58941921732305 -8.33190222530643 -3.133394544618359
H -4.606030162766235 -8.729029614233067 -2.249663097652825
H -5.265238966802894 -7.638754357652774 -3.0912561526202067
O 4.193285459265603 -8.50374232858547 0.7528534271555414
H 3.714278325985058 -8.524947770411606 1.594916282531144
H 5.043009395258645 -8.09555167089202 0.9771558209730795
O -3.889370163420999 -5.02340051165528 5.804438977888943
H -3.6337542027234337 -4.538773123236039 5.005211768685823
H -3.642688020484043 -4.4280694331796076 6.528103797855358
O -2.478321930365466 -0.09337496894288999 -9.862013976598405
H -2.3743876253820777 -0.6613822712048851 -9.083854146149243
H -3.43255888651564 -0.09938711967165861 -10.03041121487999
O -5.184160600889301 2.6847120069483172 -4.658366500600012
H -5.1939450201573125 2.7149257737575407 -3.689883795367344
H -4.357786227087223 2.2249969887840924 -4.869859859118643
O -7.18503794736315 4.554697871014946 -1.6955751675172719
H -7.734213991761873 4.730305792106166 -0.9167716703444664
H -6.2987841513210014 4.838985982875209 -1.4259524259767833
O 1.6956355384728576 -7.844295512541411 0.6571703350235538
H 1.0629681610981039 -7.6915937276997415 1.3750711021299273
H 1.9169939342093616 -8.784351037708541 0.7362779486881835
O -4.523499021540254 2.446513344718969 4.301760942476249
H -5.157512735457998 2.259706515928398 5.010349099434464
H -4.579012147649016 1.6684385491687077 3.7268871740200327
O 4.982020137993219 2.369303214069877 -4.8488709106078804
H 5.163533232837462 3.2575660787983205 -5.1909373317083505
H 4.440245365558986 1.9587447920692889 -5.539438664255718
O 2.6724148648033657 -3.6545314725538276 6.292981539498534
H 2.851109470927516 -3.816416747390885 5.354456764954428
H 2.7432613319001478 -4.531339095418072 6.699369426728278
O 2.7044398388561444 -7.877419789530302 4.665133163605144
H 2.7966966851351107 -7.84853277506934 3.700964313449637
H 2.585918523153084 -6.949216365762536 4.916833473755544
O 10.309648598027835 6.541674001692175 1.6057807625612583
H 9.408284311860145 6.858177368739169 1.768062613577714
H 10.512135149357604 6.859474121787559 0.7130522346772579
O 1.901407166233552 8.157182944759523 2.673885190236199
H 2.6794754488929904 8.100898228588054 3.248697451017831
H 1.1938460321675208 7.751888399358805 3.197388310883645
O -6.370015373612737 -2.629108903552991 -4.526119235044545
H -7.023227095391681 -3.1075935110738184 -3.993827694818487
H -6.4997863245604055 -2.974647888183046 -5.42206803642271
O 3.089224054793909 4.002130149640663 -5.5781986777033135
H 2.7226065268542277 4.011266427596154 -4.681273110260553
H 2.3124452198082217 3.8949211081864785 -6.147481390640176
O 1.0958170323038567 -6.95136080939082 7.981680237436805
H 1.6870872098733436 -6.24974029372305 7.6700785910819755
H 1.696164013462023 -7.670472972297469 8.229517167037699
O 6.803555669351624 3.148867634201036 -0.6326091681485853
H 7.686767450416566 3.4272362584411855 -0.34727565149352824
H 6.771442362058709 3.3958699500490264 -1.569049521700503
O -2.164628894060093 12.197477082958752 3.0840999840592014
H -2.213536665065248 12.56296996781401 3.980197265583641
H -1.2506730702570543 11.884531632376655 3.0085232588293014
C 4.066879068818424 17.165496598734766 4.775585949224646
O 3.731219328859847 17.21187307170134 5.923627768596275
O 4.402538808777 17.119120125768188 3.627544129853016
O 4.579268577428657 16.243353446949694 -12.911661637574761
H 4.111296541476008 16.07050636966246 -13.742380253195957
H 5.491618081631354 15.974338967776614 -13.096625246093652
O -11.554730173033605 -5.154648283161414 -3.8499017115504373
H -12.234856109929877 -4.466669419135158 -3.7943936084112453
H -10.728696751408469 -4.659189231413758 -3.955500284928977
O 2.175644433486472 -1.1361716648180984 9.376596223065965
H 2.2637468450226366 -1.1401203217489209 8.411614497803793
H 2.49417773519617 -2.011292883095217 9.644292568433414
O -6.182600826172674 -6.486718239715119 -9.196991083287363
H -6.2001074318546125 -6.468415512298793 -8.228318855014754
H -6.8941205385655975 -5.88180727834834 -9.455417807901153
O 0.21930095487774404 -7.845899346976186 21.93226227907842
H 0.9553548696564809 -7.894904190740296 22.560585855531308
H 0.2509812917640184 -8.695796352166216 21.467898864150207
O -1.0248937483711607 -10.169039877060545 -0.9953185084584569
H -1.2837070587534583 -10.181951208036306 -1.9290295584098813
H -1.419633920176945 -9.352436775122227 -0.6542884291876406
O -5.64479795102943 -10.308155101650804 -4.945402508964822
H -6.033145704039454 -10.162055967284994 -4.0697265286104285
H -5.337280933591744 -9.429564640087559 -5.214612518318704
O 5.63625883871907 1.3449893804798232 13.010699751332956
H 6.214801295374681 1.5445567925048427 13.761984538084644
H 5.308528617783403 2.2128220781999586 12.73066179791726
O -10.78783972857957 8.261013656720065 -5.681921520982958
H -10.341168815450228 7.40719598307788 -5.784136160054129
H -10.553949918729023 8.541558933442701 -4.7843961180796795
O -4.1716061833060625 0.10597672885670484 -13.45779757616334
H -4.323092825343805 -0.15971553323160137 -12.538326654355302
H -3.9080201320766705 -0.715773053529908 -13.898492065628378
O -12.25919076695272 18.847914334362624 -7.412945779780592
H -12.784687024797812 18.885949324581023 -8.226195052396246
H -12.827158158111896 18.370919426960604 -6.789366718881029
O -7.7273201016151285 -18.3880889509375 4.58156599096452
H -7.7162899916328245 -18.674272600030807 3.6558529616917235
H -8.65360047983603 -18.153850754317535 4.743118064511023
O 8.475169331857003 0.749025868020071 -12.867955154647987
H 9.02385241540527 0.37334362356317563 -13.572779304296535
H 7.6195274410347125 0.9047472878533285 -13.295260359829445
O -11.577577601500789 4.919441757214055 -5.81697296669414
H -11.776095206916793 5.642225350828561 -5.202854090545884
H -12.443840774958257 4.669298066739053 -6.171907034834891
O 13.39166635159516 5.045140122405125 7.265795548745025
H 13.550210626639384 4.398710833267938 7.970039997708803
H 12.884751400627016 4.550892880345124 6.604192313791444
O 15.012720651661141 -3.47832888284875 -8.290872790881052
H 14.818086190041793 -3.5661448636817026 -9.236056972276664
H 15.851110390244916 -2.9929724255840027 -8.268653431555505
O -12.463183578808007 13.24631072264805 -9.982098583796605
H -13.126961551604134 12.61045573898748 -9.675415360446063
H -12.974417765708296 14.04928165879123 -10.163314549301145
O -13.741645572357433 -6.231278430035871 -7.285381543958887
H -14.34059391497357 -6.129661530514584 -6.530462842700889
H -13.210038619043903 -5.421213809562769 -7.2730810502096706
O -6.214950782835939 7.665941308638079 -6.704315185218721
H -6.239071857975142 7.666980187143502 -7.673017642821457
H -5.592540013165492 8.375471672546844 -6.484921838032132
O 21.173592003338314 -5.634476607759005 -5.955663398488499
H 20.651724232671597 -5.791963303839573 -5.154527125812631
H 21.461164469763574 -4.713076191765902 -5.870309463243371