194

C -5.0710522388059704 1.0783507462686561 0.47044029850746183
C -3.8153522388059704 0.1782507462686569 0.19534029850746193
C -4.11845223880597 -1.3219492537313435 0.5608402985074619
C -2.96945223880597 -2.3874492537313436 0.7034402985074619
C -2.52015223880597 0.7359507462686565 0.7384402985074618
C -2.20305223880597 0.7852507462686571 2.097440298507462
C -1.5755522388059702 1.205650746268656 -0.18965970149253808
C -0.9533522388059701 1.2695507462686564 2.508640298507462
H -2.91125223880597 0.4298507462686567 2.840840298507462
C -0.32655223880597006 1.6562507462686575 0.21554029850746192
H -1.7850522388059702 1.178550746268657 -1.2573597014925382
C 0.004447761194029898 1.6956507462686563 1.569740298507462
H -0.7158522388059702 1.2676507462686573 3.5705402985074617
H 0.3943477611940298 1.9193507462686572 -0.5551597014925382
C -1.76045223880597 -2.1592492537313435 -0.1734597014925381
C -0.5287522388059701 -1.936549253731343 0.464840298507462
C -1.8068522388059702 -2.121249253731343 -1.5681597014925381
C 0.6114477611940299 -1.614449253731343 -0.2582597014925381
H -0.4544522388059702 -1.954049253731343 1.5506402985074619
C -0.6479522388059701 -1.8270492537313432 -2.2998597014925384
H -2.74345223880597 -2.290549253731343 -2.092259701492538
C 0.5698477611940298 -1.5506492537313434 -1.6506597014925382
H 1.5072477611940298 -1.351949253731343 0.2991402985074618
H -0.7173522388059701 -1.7640492537313435 -3.3840597014925375
C 1.7791477611940298 -1.082849253731343 -2.4255597014925376
H 1.4739477611940297 -0.9102492537313429 -3.464259701492538
H 2.1252477611940295 -0.1337492537313434 -2.0010597014925384
C 1.3965477611940298 2.0964507462686566 1.997440298507462
H 1.51704776119403 1.8448507462686567 3.057640298507462
H 2.1256477611940294 1.5207507462686571 1.4165402985074618
C 3.94864776119403 -1.4275492537313434 -3.522959701492538
H 4.81734776119403 -2.087049253731343 -3.615159701492538
H 3.4305477611940303 -1.3641492537313429 -4.484459701492538
H 4.26984776119403 -0.441449253731343 -3.176459701492538
C 2.60904776119403 -3.4296492537313434 -2.8992597014925376
H 1.9825477611940296 -3.869549253731343 -2.119359701492538
H 2.06294776119403 -3.373349253731343 -3.845759701492538
H 3.5215477611940305 -4.019849253731343 -3.0234597014925377
C 3.7281477611940304 -2.060049253731343 -1.156659701492538
H 3.9048477611940298 -1.032549253731343 -0.8295597014925382
H 3.12924776119403 -2.623249253731343 -0.4404597014925382
H 4.68244776119403 -2.5769492537313434 -1.3005597014925383
C 3.1110477611940297 3.755250746268656 2.588740298507462
H 3.40124776119403 4.809350746268656 2.534540298507462
H 2.9823477611940303 3.461750746268656 3.634840298507462
H 3.86514776119403 3.1392507462686563 2.091540298507462
C 1.99744776119403 3.9574507462686572 0.40494029850746194
H 2.67914776119403 3.230350746268657 -0.04295970149253803
H 1.03214776119403 3.981150746268657 -0.10175970149253821
H 2.4399477611940297 4.958250746268657 0.368240298507462
C 0.7418477611940297 4.4992507462686575 2.475440298507462
H -0.18475223880597014 4.424250746268656 1.901240298507462
H 0.57844776119403 4.189650746268656 3.511940298507462
H 1.1210477611940297 5.524350746268658 2.4432402985074617
N 3.00114776119403 -2.025349253731343 -2.490159701492538
N 1.7831477611940298 3.586450746268657 1.862540298507462
C -3.55075223880597 -3.8435492537313434 0.6444402985074619
H -2.62515223880597 -2.2736492537313433 1.7424402985074618
H -4.67195223880597 -1.3478492537313436 1.5102402985074619
H -4.83415223880597 -1.6757492537313432 -0.1945597014925382
H -3.7169522388059697 0.17335074626865676 -0.900559701492538
H -3.9132522388059705 -4.043149253731343 -0.34225970149253815
H -4.35435223880597 -3.9354492537313432 1.3449402985074619
H -2.78115223880597 -4.545049253731343 0.8904402985074619
H -5.24235223880597 1.138950746268657 1.5249402985074618
H -5.92805223880597 0.6501507462686567 -0.006059701492538094
H -4.89895223880597 2.059650746268657 0.08004029850746197
C -0.7056187424017403 3.1110635822573767 -3.0082939941442786
O -0.014618934899743447 4.117600646898789 -3.0426145730329233
O -1.9411401308958798 3.096138110911803 -2.9647555860587
O -0.2763030085014073 1.9516136410086982 -3.0117895290181043
O 0.6893743687698988 3.4236213453241424 -5.343923466284092
H 1.1221001435190034 4.005605178977644 -4.701264475734857
H 1.425212396226679 2.9678888870868323 -5.77959796422664
O -7.410478959478228 0.1634808829710146 -4.229074021029262
H -8.04152665952524 -0.5704840931346211 -4.274257768280121
H -7.065650984713346 0.2316055779693531 -5.132077142868235
O 1.4489536878866125 -5.482935251337141 6.44932288874696
H 1.3065307280189735 -6.070916122977186 5.692380650535909
H 2.1738977963575365 -5.901326648294906 6.937550932641435
O 8.162644086667255 6.572731960401535 -0.6318393053274896
H 8.423805477352616 7.3808920723574625 -1.0983575990295378
H 8.905577231762674 5.967922444854516 -0.7775023964741852
O -3.8880118065599767 -0.2299198391583155 5.573768851467507
H -3.5230562687659512 0.19466720923578862 4.782882860524782
H -4.0408503794725235 0.5061457206874054 6.185168725967871
O 6.860190472632649 -1.650111015484749 6.123502140585394
H 7.795087636488338 -1.4270173817703338 6.246643849647302
H 6.499751450812095 -1.6527614982784706 7.022967888009942
O 7.5001159749183 -6.566416360734822 5.006756237681286
H 6.6456268867847985 -6.644790149585453 5.456948756923863
H 7.987026275405825 -7.354910077760419 5.289878052083331
O -10.159301935595447 -2.492239337308999 4.805785965925583
H -10.444418090198308 -2.5944240949609503 5.726239338230825
H -10.378018662065752 -1.572365781457655 4.593753942147296
O 6.391650242291458 0.13760688301823054 1.0506234701068355
H 6.0933287677001795 1.0452987913448417 0.8891705226079403
H 7.011358514167913 0.22304026519722342 1.7906401856459877
O -2.2095200842840477 8.975188400059992 2.6347547002618192
H -1.5970968194225499 9.710782637625693 2.4837374190767836
H -2.4021676878491025 9.021979632690556 3.5832584829055967
O 3.2529485262847 -9.319356590280517 -2.2132397321231148
H 2.324925573330557 -9.546794458435995 -2.0519549782895137
H 3.2592434628035765 -8.995444961810396 -3.126477694001649
O 7.52622759668515 6.738861783942464 -4.246384128855094
H 6.673106484915625 6.79229859068837 -3.7899893071952393
H 8.174965845883115 6.7092557477261225 -3.5272011820695663
O -0.7092801972550937 0.8314813442062867 -7.756979128028071
H -1.3937333042206406 0.2213943390188704 -8.070483748993473
H -1.0387206290436188 1.1304793561493796 -6.896147474882657
O 3.0149780627563603 -9.347614499830097 3.224740081563442
H 2.5581203408982827 -9.970024985803077 3.810277070855773
H 2.3443385227129707 -9.109730568630031 2.567004734400775
O -4.7773617646357875 5.287328482360649 2.946223046442965
H -5.0064552635308015 4.873303701014542 3.791839393313902
H -4.521969919524669 4.5419062715879175 2.3822348573490517
O 3.933313303689436 9.875097541244239 -4.5883112168396
H 3.4871533935506673 9.794238931132288 -3.731940633122637
H 3.935449504002868 8.97116100025968 -4.937390163241544
O -4.4234789405357535 5.933009253293934 -2.0841497258137904
H -4.170651335230534 5.449431644222503 -2.8848982849135796
H -4.940581798266863 5.2901315219379255 -1.575942286520669
O 4.405464891095983 -4.30697667227469 3.0492943207317245
H 4.331998114565717 -4.050303579997538 3.9807925297193414
H 3.666610015930872 -3.848850964509298 2.6213033703259865
O 3.823719140845043 -6.0970056717969925 -1.2523226101881038
H 3.867444420787036 -6.073657265999105 -0.2845879829577392
H 4.613046642159277 -5.610658513663251 -1.5340857762411928
O -1.4136626536772645 -5.113487038019965 5.220757898068479
H -1.7422050810213454 -5.230876438432117 6.12477502125019
H -1.5954445651754552 -5.963935628553589 4.7933769487838465
C -15.41276612610346 -0.15182669379632507 -7.240413592957838
O -16.047379256505632 0.42247062711337424 -8.077233178780912
O -14.778152995701287 -0.7261240147060217 -6.403594007134764
O -9.232399729353943 -6.6910538819284655 -11.127602527193343
H -9.970743569658186 -6.563382103638633 -11.742025547117803
H -9.04357569052539 -7.6398897551621126 -11.182538056001345
O 11.810376365575541 -11.132200917531186 1.5751077164700504
H 11.799297370216522 -11.877044962945964 0.9553884568274391
H 12.29727661255175 -11.472064503299986 2.3408640986588507
O 2.0720067154096578 -0.6560613613088311 13.316941208280753
H 2.896290893266383 -0.8029769969721015 12.829151553785373
H 2.0413952555421058 -1.3883994909108113 13.950743816949924
O 7.374439369878507 -17.084567058982387 -9.281323749180265
H 6.471804634784606 -16.872604072906416 -9.562907812002932
H 7.2731719348061965 -17.89676854578936 -8.762637335513574
O -5.65041546554678 5.278954424491503 -5.097361742525485
H -6.6034859317097885 5.322483156931469 -4.927864565911842
H -5.3238162222655525 6.1488360569815335 -4.822405702321583
O -13.45040844675411 0.33264068082974274 2.120877399313926
H -12.843742221366291 1.0316396521654563 1.8339560059928406
H -14.292359079937786 0.5671514658135266 1.7024448870638684
O 12.186781410169804 -13.385973610965918 -6.786239569691125
H 12.607355319011756 -12.612512901790833 -6.381463736094586
H 12.103799992387021 -13.144850085900098 -7.721084730272592
O 8.624486353220957 2.4928875813770732 -1.976160789603383
H 8.453796150672241 2.55047623463781 -1.0240495783105559
H 8.219474214137158 3.296467972600483 -2.335584865502584
O 2.998839679142468 1.883859318864165 -14.116770622047632
H 2.6913217406055825 2.8013234171122754 -14.065198315488715
H 2.7510627123914144 1.505431801936127 -13.259821887595374
O -8.94466837594904 -7.561623987068227 0.3807647643922083
H -9.433698529881651 -7.968761358848401 1.1115561340351325
H -8.555666507847539 -8.314699090889441 -0.0888280154907557
O 10.330058580308531 -4.624028017718053 12.823215643332098
H 10.839764887638827 -5.3857461161588365 13.137782608659789
H 10.83972147686086 -3.8588331670380804 13.12929164152657
O 12.608964169060144 8.706784920469183 -4.5601422216884515
H 12.65053176723109 8.866805897294412 -5.514936848117716
H 13.452282791563595 9.049878101598376 -4.228385210757962
O 10.116642768204441 -7.718958363848187 11.729345777196016
H 10.04250966798207 -7.825466839037689 10.769071032623284
H 9.234249752016801 -7.946443529715448 12.058883344999188
O 4.991744174622447 8.600661299738286 4.579610622343867
H 4.837991002483076 7.789585606482896 4.07218226408295
H 4.300330581503904 8.586714524202407 5.258370281577572
O -0.6161435838778271 1.8829508879193275 -22.798632733588235
H 0.08699681569891737 1.7440209775695408 -23.45075190628082
H -1.4079682507751041 2.033134356559766 -23.336610955210773
O -13.195868893080036 -4.217893146933919 14.363108056441046
H -13.376211556811688 -5.161555667051754 14.489381286632675
H -12.270776074433055 -4.118136759057178 14.63368869925492
O -7.33169062142766 3.4388717187780937 -16.78932633401657
H -6.611650133311558 4.008424034693161 -16.479295348775885
H -7.031066094689207 2.5432612779158497 -16.573760157537478
O -16.162205179554586 10.58051569071174 -8.025199661227086
H -16.409053977253922 11.516080849886825 -7.972751010986206
H -15.721128426025063 10.502641866924751 -8.884471975086116
O 10.294273768235959 0.07540854448819617 -3.2508766949862906
H 11.217414448502021 0.03648576393950986 -3.5428761102121977
H 10.3557794816212 0.11136903197776149 -2.284499007505622
O 10.99015908066068 -8.987077847035192 -11.861944752150835
H 10.87848982293907 -9.0617880182947 -12.821588292268872
H 11.025658325479087 -9.906540822878501 -11.558152744404268