194

C -5.0710522388059704 1.0783507462686561 0.47044029850746183
C -3.8153522388059704 0.1782507462686569 0.19534029850746193
C -4.11845223880597 -1.3219492537313435 0.5608402985074619
C -2.96945223880597 -2.3874492537313436 0.7034402985074619
C -2.52015223880597 0.7359507462686565 0.7384402985074618
C -2.20305223880597 0.7852507462686571 2.097440298507462
C -1.5755522388059702 1.205650746268656 -0.18965970149253808
C -0.9533522388059701 1.2695507462686564 2.508640298507462
H -2.91125223880597 0.4298507462686567 2.840840298507462
C -0.32655223880597006 1.6562507462686575 0.21554029850746192
H -1.7850522388059702 1.178550746268657 -1.2573597014925382
C 0.004447761194029898 1.6956507462686563 1.569740298507462
H -0.7158522388059702 1.2676507462686573 3.5705402985074617
H 0.3943477611940298 1.9193507462686572 -0.5551597014925382
C -1.76045223880597 -2.1592492537313435 -0.1734597014925381
C -0.5287522388059701 -1.936549253731343 0.464840298507462
C -1.8068522388059702 -2.121249253731343 -1.5681597014925381
C 0.6114477611940299 -1.614449253731343 -0.2582597014925381
H -0.4544522388059702 -1.954049253731343 1.5506402985074619
C -0.6479522388059701 -1.8270492537313432 -2.2998597014925384
H -2.74345223880597 -2.290549253731343 -2.092259701492538
C 0.5698477611940298 -1.5506492537313434 -1.6506597014925382
H 1.5072477611940298 -1.351949253731343 0.2991402985074618
H -0.7173522388059701 -1.7640492537313435 -3.3840597014925375
C 1.7791477611940298 -1.082849253731343 -2.4255597014925376
H 1.4739477611940297 -0.9102492537313429 -3.464259701492538
H 2.1252477611940295 -0.1337492537313434 -2.0010597014925384
C 1.3965477611940298 2.0964507462686566 1.997440298507462
H 1.51704776119403 1.8448507462686567 3.057640298507462
H 2.1256477611940294 1.5207507462686571 1.4165402985074618
C 3.94864776119403 -1.4275492537313434 -3.522959701492538
H 4.81734776119403 -2.087049253731343 -3.615159701492538
H 3.4305477611940303 -1.3641492537313429 -4.484459701492538
H 4.26984776119403 -0.441449253731343 -3.176459701492538
C 2.60904776119403 -3.4296492537313434 -2.8992597014925376
H 1.9825477611940296 -3.869549253731343 -2.119359701492538
H 2.06294776119403 -3.373349253731343 -3.845759701492538
H 3.5215477611940305 -4.019849253731343 -3.0234597014925377
C 3.7281477611940304 -2.060049253731343 -1.156659701492538
H 3.9048477611940298 -1.032549253731343 -0.8295597014925382
H 3.12924776119403 -2.623249253731343 -0.4404597014925382
H 4.68244776119403 -2.5769492537313434 -1.3005597014925383
C 3.1110477611940297 3.755250746268656 2.588740298507462
H 3.40124776119403 4.809350746268656 2.534540298507462
H 2.9823477611940303 3.461750746268656 3.634840298507462
H 3.86514776119403 3.1392507462686563 2.091540298507462
C 1.99744776119403 3.9574507462686572 0.40494029850746194
H 2.67914776119403 3.230350746268657 -0.04295970149253803
H 1.03214776119403 3.981150746268657 -0.10175970149253821
H 2.4399477611940297 4.958250746268657 0.368240298507462
C 0.7418477611940297 4.4992507462686575 2.475440298507462
H -0.18475223880597014 4.424250746268656 1.901240298507462
H 0.57844776119403 4.189650746268656 3.511940298507462
H 1.1210477611940297 5.524350746268658 2.4432402985074617
N 3.00114776119403 -2.025349253731343 -2.490159701492538
N 1.7831477611940298 3.586450746268657 1.862540298507462
C -3.55075223880597 -3.8435492537313434 0.6444402985074619
H -2.62515223880597 -2.2736492537313433 1.7424402985074618
H -4.67195223880597 -1.3478492537313436 1.5102402985074619
H -4.83415223880597 -1.6757492537313432 -0.1945597014925382
H -3.7169522388059697 0.17335074626865676 -0.900559701492538
H -3.9132522388059705 -4.043149253731343 -0.34225970149253815
H -4.35435223880597 -3.9354492537313432 1.3449402985074619
H -2.78115223880597 -4.545049253731343 0.8904402985074619
H -5.24235223880597 1.138950746268657 1.5249402985074618
H -5.92805223880597 0.6501507462686567 -0.006059701492538094
H -4.89895223880597 2.059650746268657 0.08004029850746197
C 2.919960275915491 -0.7669456478676351 3.5828199142538084
O 3.7612140030414993 -0.9154199188249414 2.7098805944495643
O 3.1028578090161583 -0.18177166897931096 4.656482510658143
O 1.7555286415306728 -1.1788957058762888 3.527642899559586
O -10.445963260061829 -3.02720243417225 -0.022401085341199112
H -10.895238340298157 -3.2078190596377545 0.8169420469855614
H -9.524470491233025 -3.274070443874789 0.14750832311438677
O -5.785128899634708 -3.511631938929458 8.342582507238369
H -5.683295288398854 -3.9390034427965412 7.478898033483598
H -4.8752723852025435 -3.3332609512518028 8.624197240873254
O 7.663195511435991 7.259801232033211 2.929057659871881
H 8.321279387249541 7.358915083012394 3.6333796131278415
H 7.387880169401051 8.168668962594992 2.736384737322658
O -3.002143626992247 -11.207194750425167 6.279457324132149
H -2.9949464991735097 -11.078435149034028 5.319073794858164
H -3.0929441044449315 -12.165987095100231 6.386389346402636
O 6.793891935734354 3.013839723578951 2.5591419075123025
H 7.116773024677587 2.5817729420596347 3.3641471594270778
H 7.597351531806899 3.1765907324659883 2.0424923832841317
O -8.67431215164143 2.271654065216283 2.1848725333948558
H -8.494077152805747 1.8032502614337402 3.013775771835114
H -9.340665622635765 2.931457471318731 2.4289923017246884
O 9.51836602874023 -1.104513225331118 -6.348286658196604
H 10.358582382537687 -1.505985751153334 -6.080287317299579
H 9.735980941628 -0.16882202033589877 -6.47512380923463
O -10.245090714496959 -1.4203045177671387 -3.6592279894147364
H -10.750183681774153 -2.149134470616496 -3.268516649501592
H -10.068825764850805 -1.7167217147255882 -4.564782768085544
O 11.989099972983565 -0.9460282650745473 -1.693215041313411
H 11.36464184835014 -0.30847501309492564 -2.0707667044927893
H 11.432871450100421 -1.5257577484554785 -1.1514720203799502
O -3.939860001615579 -1.4563960771954536 -9.736116189253485
H -3.6646609404580763 -2.2575853647860407 -9.265660496240725
H -3.3825224167481887 -0.7597776602018365 -9.357884062247475
O 3.84101188483043 -5.702458072598209 -1.2141352673797674
H 3.870786524220701 -5.713251599278715 -0.24564968280404553
H 3.5290686760958137 -6.589404291118483 -1.4486129513433734
O -6.241321869368243 0.016721102559164702 -3.9495299143466864
H -6.258776917242687 0.3825384760903594 -3.052400978559617
H -5.297319471655338 -0.08964087312516877 -4.1406020147193185
O -4.784940705657714 8.024509414407191 1.9603050574016927
H -4.646911442152353 7.775275047623197 1.0341314723054917
H -4.5990221197574295 7.2104605493271725 2.4519560199541637
O -5.981815914471889 0.5980985095293709 5.706534385092879
H -5.557921931868519 0.7339471077688278 6.567247116943076
H -5.578760767364971 1.2715543652879715 5.138233669771253
O 0.5510791581728078 9.059046164816628 8.122018580898459
H 0.5896569198795136 9.373482144735569 7.206262539294519
H 0.3662587466551246 9.859056254442903 8.63659337262712
O 6.505617440795094 -5.220929920953043 1.6641846725942875
H 5.720957899937502 -5.415615979263326 2.198388847550605
H 6.311689859296214 -5.627923121526649 0.8064489486554707
O -6.112821991322932 -4.596861972183589 -6.607928984263445
H -6.846511303528262 -4.233144910905136 -7.125980380739352
H -6.037995097393724 -3.994104943202631 -5.852914518005377
O 3.2580297612657976 5.956615265112609 4.847524606240956
H 2.610458959687969 6.19505320465519 5.527794231338637
H 3.631583018231784 5.120001937046341 5.162957717711494
O -6.917135725674114 4.908129611052225 -3.3110675856929133
H -6.679541201285083 5.273430011019531 -4.176556936675395
H -7.865036552496202 4.72219523529075 -3.3877120552924533
O -1.1402484499324792 -8.104257312579872 0.8517188702265706
H -1.1437677545555078 -7.220289119813533 1.2486511132761664
H -1.6132089047597589 -8.652051211590683 1.49607296284654
C 0.8677748414530444 -12.297175835031084 1.7396647110488523
O 1.4391293936724447 -13.348357687205095 1.7769332851856552
O 0.2964202892336436 -11.24599398285708 1.70239613691205
O 11.613090381434144 -3.8090093143525254 7.361968802736254
H 10.662524900843108 -3.758492188540439 7.180748925216106
H 11.684953201575052 -4.491183753331716 8.046392439225253
O 12.59719015868646 -7.8051710132140855 -5.248678282230052
H 11.732979892865082 -7.504751176385467 -4.929529578662564
H 13.223209498578827 -7.1812432195686045 -4.851468213503935
O -11.02314765535047 11.340028284100441 9.800729858916352
H -10.348160933668371 11.636783699863354 9.172003761423783
H -11.148436207096395 12.10171868578221 10.38647080429005
O -3.970370407926046 10.585147390010786 13.26666970414671
H -3.527869467311655 11.111696676753528 13.949242867321242
H -4.8559454170975656 10.430048271747708 13.628143231455255
O -4.459169147719349 -9.503019780054695 1.9689566751357348
H -4.457192605048663 -10.36037061887884 1.5173894161957069
H -3.568458828657474 -9.154549737286334 1.8135034631724238
O 12.80832231499241 0.7975294624442006 6.4557729499866054
H 12.683603312863937 0.10325699381257158 5.791394844757194
H 13.768162159465714 0.827955469219247 6.585170304570018
O 12.700326755502331 4.793971291470957 5.4821398842059565
H 12.567527177956244 4.505688864301434 4.56659366948557
H 12.341639409858875 5.693992267073725 5.498497630086544
O 1.2837449067551552 4.8059435678026885 -7.306991418323546
H 0.9762564928072373 5.616182436038887 -7.740501751057516
H 0.9635147108100318 4.096014252934831 -7.88354578158533
O 14.76308758284199 -3.706790517395964 1.353932752438026
H 15.229164047285458 -4.55440043558117 1.2965087784728753
H 15.319894211675303 -3.1727592563586144 1.9402252857540665
O 3.285247736420467 -14.75395915139794 8.25697047868464
H 3.7677648558567807 -15.016290183357292 7.458642841669595
H 2.3982861125280506 -15.12143365295231 8.125732097296066
O 15.718254616372473 4.131893075663077 11.772358709118183
H 15.809360012053055 4.538539627257812 10.897541159080465
H 16.28590619559022 4.672473203086376 12.34201365269948
O 0.873898101574416 -10.149770686496078 17.01415729922939
H 1.065746066294487 -11.073729264527083 16.794015841489852
H 0.3926775506910367 -9.819887194479106 16.240487080465485
O -6.661841847658707 4.764750791592782 -11.618064866438687
H -6.8602676898183494 5.58917826273729 -12.08701463654793
H -7.527909005365592 4.344734949427837 -11.506367440452284
O 4.1131234805865695 -5.518184443165361 18.801241638997315
H 4.376001873306828 -4.985073717003977 18.035960474200678
H 3.3798097688513633 -6.057914221872421 18.469722845475797
O -14.638931890722368 5.5547226860304955 -3.600651857196718
H -13.882418437756357 5.8816874298778385 -4.110307435663476
H -14.373207236260063 5.684591811302904 -2.6778916702511246
O 6.941595716644571 -2.0132202897471445 -18.042427898010935
H 7.197547722978667 -2.1718950906975434 -17.121407683847913
H 7.5764232416602395 -1.3491990424525868 -18.350700084436923
O -11.114418509994934 13.397891679299114 3.693060774537475
H -11.058588970863807 13.346841121105548 2.727015092404103
H -10.37058502748815 12.857662449827531 3.9993711958854408
O 8.719122224196738 -13.655170851977918 -17.9504225055045
H 8.461579752354586 -13.847780848506902 -17.036343394412604
H 7.878501741241766 -13.474731300219227 -18.397368493402002
O 6.781105272007145 -3.776974205048949 8.926458160677702
H 6.726075210055849 -3.7415125929300954 9.893247446534538
H 5.928406288886919 -3.4245308504956986 8.63040061506033
O 4.782571934117031 -7.470079255425266 11.391594551655428
H 4.297963575258899 -7.369918003521686 10.558474020734518
H 4.397614771482269 -8.26392928528606 11.79230898529391