194

C -5.0710522388059704 1.0783507462686561 0.47044029850746183
C -3.8153522388059704 0.1782507462686569 0.19534029850746193
C -4.11845223880597 -1.3219492537313435 0.5608402985074619
C -2.96945223880597 -2.3874492537313436 0.7034402985074619
C -2.52015223880597 0.7359507462686565 0.7384402985074618
C -2.20305223880597 0.7852507462686571 2.097440298507462
C -1.5755522388059702 1.205650746268656 -0.18965970149253808
C -0.9533522388059701 1.2695507462686564 2.508640298507462
H -2.91125223880597 0.4298507462686567 2.840840298507462
C -0.32655223880597006 1.6562507462686575 0.21554029850746192
H -1.7850522388059702 1.178550746268657 -1.2573597014925382
C 0.004447761194029898 1.6956507462686563 1.569740298507462
H -0.7158522388059702 1.2676507462686573 3.5705402985074617
H 0.3943477611940298 1.9193507462686572 -0.5551597014925382
C -1.76045223880597 -2.1592492537313435 -0.1734597014925381
C -0.5287522388059701 -1.936549253731343 0.464840298507462
C -1.8068522388059702 -2.121249253731343 -1.5681597014925381
C 0.6114477611940299 -1.614449253731343 -0.2582597014925381
H -0.4544522388059702 -1.954049253731343 1.5506402985074619
C -0.6479522388059701 -1.8270492537313432 -2.2998597014925384
H -2.74345223880597 -2.290549253731343 -2.092259701492538
C 0.5698477611940298 -1.5506492537313434 -1.6506597014925382
H 1.5072477611940298 -1.351949253731343 0.2991402985074618
H -0.7173522388059701 -1.7640492537313435 -3.3840597014925375
C 1.7791477611940298 -1.082849253731343 -2.4255597014925376
H 1.4739477611940297 -0.9102492537313429 -3.464259701492538
H 2.1252477611940295 -0.1337492537313434 -2.0010597014925384
C 1.3965477611940298 2.0964507462686566 1.997440298507462
H 1.51704776119403 1.8448507462686567 3.057640298507462
H 2.1256477611940294 1.5207507462686571 1.4165402985074618
C 3.94864776119403 -1.4275492537313434 -3.522959701492538
H 4.81734776119403 -2.087049253731343 -3.615159701492538
H 3.4305477611940303 -1.3641492537313429 -4.484459701492538
H 4.26984776119403 -0.441449253731343 -3.176459701492538
C 2.60904776119403 -3.4296492537313434 -2.8992597014925376
H 1.9825477611940296 -3.869549253731343 -2.119359701492538
H 2.06294776119403 -3.373349253731343 -3.845759701492538
H 3.5215477611940305 -4.019849253731343 -3.0234597014925377
C 3.7281477611940304 -2.060049253731343 -1.156659701492538
H 3.9048477611940298 -1.032549253731343 -0.8295597014925382
H 3.12924776119403 -2.623249253731343 -0.4404597014925382
H 4.68244776119403 -2.5769492537313434 -1.3005597014925383
C 3.1110477611940297 3.755250746268656 2.588740298507462
H 3.40124776119403 4.809350746268656 2.534540298507462
H 2.9823477611940303 3.461750746268656 3.634840298507462
H 3.86514776119403 3.1392507462686563 2.091540298507462
C 1.99744776119403 3.9574507462686572 0.40494029850746194
H 2.67914776119403 3.230350746268657 -0.04295970149253803
H 1.03214776119403 3.981150746268657 -0.10175970149253821
H 2.4399477611940297 4.958250746268657 0.368240298507462
C 0.7418477611940297 4.4992507462686575 2.475440298507462
H -0.18475223880597014 4.424250746268656 1.901240298507462
H 0.57844776119403 4.189650746268656 3.511940298507462
H 1.1210477611940297 5.524350746268658 2.4432402985074617
N 3.00114776119403 -2.025349253731343 -2.490159701492538
N 1.7831477611940298 3.586450746268657 1.862540298507462
C -3.55075223880597 -3.8435492537313434 0.6444402985074619
H -2.62515223880597 -2.2736492537313433 1.7424402985074618
H -4.67195223880597 -1.3478492537313436 1.5102402985074619
H -4.83415223880597 -1.6757492537313432 -0.1945597014925382
H -3.7169522388059697 0.17335074626865676 -0.900559701492538
H -3.9132522388059705 -4.043149253731343 -0.34225970149253815
H -4.35435223880597 -3.9354492537313432 1.3449402985074619
H -2.78115223880597 -4.545049253731343 0.8904402985074619
H -5.24235223880597 1.138950746268657 1.5249402985074618
H -5.92805223880597 0.6501507462686567 -0.006059701492538094
H -4.89895223880597 2.059650746268657 0.08004029850746197
C -1.9720924735309746 3.526122823993055 -2.3160788595466633
O -0.9001621456057627 3.4508172215692223 -1.7355016149721536
O -3.078261815366579 3.3367999368013215 -1.7972554833690173
O -2.116580719683152 3.8033110681576066 -3.512297154182238
O -0.5780290331456168 -4.326462254507781 -6.6294940692186035
H 0.30267759417149676 -4.304839188347349 -7.033047828350565
H -1.1046308637384246 -4.858018473949082 -7.245205399217958
O 6.048888053363465 0.672252391451289 2.7497057157768534
H 6.135839227316843 0.1602716399104449 1.9316088020191964
H 6.203886073969317 0.02144747922665724 3.4506982436489824
O 0.1137733743046954 7.739952244662202 -2.380130182635456
H 0.40123458894303154 8.597846576439991 -2.727046199103694
H 0.5952537946720601 7.652451325463113 -1.5437796949556921
O -2.110013762470323 3.721754484474457 6.23595838366415
H -2.283113586161684 3.582360217708686 7.1791301847326805
H -1.4676913283287731 4.447114594199992 6.220578327830922
O -7.787300750134834 0.7189233953597847 7.333017182251671
H -7.798949592282856 0.7081488214359899 8.30189053307384
H -6.895983501213548 0.413812504375902 7.106251112747409
O 6.994560503100766 -5.599190940591978 4.458614395665235
H 7.0253882913186665 -4.818010852645585 3.8860983045641553
H 7.817226401774585 -5.548563072655824 4.968143180374631
O 2.4199448805532655 -8.592007451770556 3.3730213272051888
H 2.5748691800077843 -8.834885327285686 2.447831532663666
H 1.9854536646819105 -7.727597177287059 3.3184850548903606
O 8.355558451296547 1.8105373839392227 -2.345128745215595
H 7.897574977827258 2.662203947768002 -2.4074389288542735
H 8.302715663087058 1.4501216861295245 -3.2430541924586245
O -1.9791211572961562 -9.085067971630105 3.8053669396762957
H -2.6472502353498997 -9.720462505066354 3.507298694406208
H -1.6717865999017212 -9.447450506685023 4.6498705290223326
O -2.0640067194014797 -7.915532293076176 -3.5327660922915465
H -2.1743021028088045 -8.63212839450292 -2.8898879446468904
H -1.1108637243507826 -7.901882256626026 -3.70681795752342
O 3.759739252946169 -5.368211532442082 2.0743747273470303
H 3.9483363305765913 -5.142266305042863 2.997601272364439
H 3.0822013780774165 -4.7277371478711006 1.8103729562795685
O 8.275775509276002 -4.645006774890241 -1.9730374040893701
H 8.123114850987502 -5.204780549449996 -2.7491272195270207
H 8.448813402807495 -5.276890799875171 -1.2590749326169353
O 2.353895435650987 6.811087273545894 10.000509549358327
H 1.658515983637613 6.994968049745336 10.649818901487087
H 1.8670013280214897 6.583557079423256 9.194205584951485
O 3.93926189713194 -7.396446982787579 -0.24210029587224247
H 3.9861925235245237 -8.18278114808276 0.32220764638617894
H 4.3983360083819925 -7.66249778331405 -1.0529207915549779
O 2.1583966571133346 1.3155118243909922 8.02265566964958
H 2.6932139112403672 0.6101381503643029 8.416845778072043
H 1.4948300755011035 0.8414529415253256 7.499292018214354
O 0.9386647941991524 -7.864870895215681 -1.017293315141448
H 0.6412413724490351 -8.38353048586836 -0.25473256731971006
H 1.1026705714674812 -8.529682815174194 -1.7029237990055228
O -3.8747498998708596 7.551550209710012 8.12591497168107
H -3.2437989001270484 6.8174997778876225 8.080769026529254
H -4.222071892224369 7.6174734134943325 7.223704625292601
O -0.47400268299494774 1.998366558104609 9.434827539809115
H 0.19005261781900495 1.4319983600553083 9.013846568030958
H -1.1975466384850426 2.029029125123748 8.791006216958166
O 0.5748171421706072 7.605619094079241 4.341547527340358
H 0.6932265336992613 7.51209252069553 5.2987305573659205
H 1.3989927297098266 7.258227174917815 3.9686998376522986
O -2.1646659640201706 7.227039316634119 0.3445124042494231
H -1.751612217606251 6.385600443502582 0.09888141626835267
H -1.8590897765446432 7.381988685407921 1.2509206075797548
C -4.305739190288984 -4.876204149494793 -4.866543241116772
O -4.418145442746436 -4.605157267118049 -3.7060620136674354
O -4.193332937831531 -5.147251031871535 -6.027024468566109
O -8.955216248867751 -13.184604358520804 2.387651844092929
H -9.166653756632998 -12.777674608797225 3.2412733738120005
H -9.590825827066581 -13.912017927077633 2.311284909616514
O -7.7475241817592195 10.166870974606162 -9.279055364389809
H -7.839934455117183 10.724183531857323 -10.066348455816428
H -8.570106353692363 10.31578524050468 -8.789009390904
O -12.59016674480101 5.555431049983644 6.851177417322427
H -12.086758285705395 4.9108062644000645 7.370798592816943
H -11.963581941429954 6.28039739730638 6.707034350427125
O 12.58654771584959 -4.987408440279407 9.157286996145872
H 13.396549162442795 -4.749933076907371 8.681397864931219
H 12.421030073953832 -4.225328488899228 9.732439151862646
O 2.293355481022233 -19.691342054653305 11.336728226180838
H 1.541230493689942 -19.08999440644024 11.228763573080744
H 2.7533793717000012 -19.35261091819014 12.119416658122992
O -4.8907927646281095 -1.2803522982840758 -17.842495591771474
H -5.108010996775418 -1.1228210016281204 -16.911384703049464
H -4.997106527541865 -2.237604493688523 -17.948926614074573
O 3.399616126542218 -13.68262522211845 -3.2263739254018997
H 3.429236565671892 -13.722762642738779 -2.258655488070197
H 3.571547493438369 -14.594990465043562 -3.5038468301681487
O -15.948752182499518 3.395012671386252 -6.655642538402147
H -15.601781148639379 3.6875088400200777 -5.799474067891489
H -16.84619138383448 3.759569389724926 -6.681395660958531
O -10.889065889694471 0.5478748221779526 -16.655640147182183
H -11.080816868476939 0.6906831982964272 -15.716595586606715
H -9.921991472086077 0.583647301381891 -16.705131003297115
O -8.294219251860934 8.27121687982915 -4.196506064041039
H -8.068075360897241 8.587072703482068 -5.084234286046142
H -7.633484492402348 8.689117055891103 -3.624010679963062
O -18.06872675065945 -3.6098545504347728 -11.952617644321823
H -18.22158941667202 -3.2921259716675104 -12.85519667824299
H -17.66298040464402 -4.4810202913060255 -12.07672283731295
O -5.666142359611271 -7.333274445330917 15.336300123782134
H -5.309396896348102 -7.30329284288332 14.435855158858777
H -5.574985111159836 -6.422600525640031 15.65461649525806
O 3.5211974868011513 -13.966680995537637 15.233894283618929
H 3.614333807953467 -13.953329843742642 16.1983188422693
H 4.205244352071638 -14.587492396684688 14.941259640045319
O -10.941072652181946 9.511910798745173 -8.324895614542905
H -10.307962646849292 9.314492191726995 -9.031411694792103
H -11.709521788068093 8.96171590572144 -8.538749418685907
O 4.027252731634013 -12.467469848823901 22.00384063038824
H 3.809147348313104 -13.404288366695628 22.121179725488993
H 3.5001728016952516 -12.198781846442461 21.236406301515718
O -14.251919212241155 -12.222558405294414 -7.684712721602722
H -14.348646365485953 -12.50907387594192 -8.605321270229549
H -14.392915491671983 -13.032320275349868 -7.171519086323646
O -11.072151269386607 4.855702131704465 3.2788922762561725
H -11.574872358796357 5.683996956796234 3.2917975421919623
H -11.568679532687055 4.290031062009944 2.6686153973278484
O 6.028434997810391 -14.53507944218225 -5.861943526107213
H 6.680349458651238 -14.882793974356678 -5.234990978651422
H 5.736760280922975 -15.317141090732754 -6.354150171425124
O -11.033004822076704 6.647062670990415 10.483592923894735
H -11.218682095502963 7.350112467978848 9.843114750974289
H -10.195698888498976 6.2670632608767844 10.177846024958995
O -4.85190847919732 5.995829355780072 -12.206552854751289
H -4.839819104585507 6.099733245502316 -13.169893493166423
H -4.087220061432828 6.509587572824122 -11.90610974456809