194

C -5.0710522388059704 1.0783507462686561 0.47044029850746183
C -3.8153522388059704 0.1782507462686569 0.19534029850746193
C -4.11845223880597 -1.3219492537313435 0.5608402985074619
C -2.96945223880597 -2.3874492537313436 0.7034402985074619
C -2.52015223880597 0.7359507462686565 0.7384402985074618
C -2.20305223880597 0.7852507462686571 2.097440298507462
C -1.5755522388059702 1.205650746268656 -0.18965970149253808
C -0.9533522388059701 1.2695507462686564 2.508640298507462
H -2.91125223880597 0.4298507462686567 2.840840298507462
C -0.32655223880597006 1.6562507462686575 0.21554029850746192
H -1.7850522388059702 1.178550746268657 -1.2573597014925382
C 0.004447761194029898 1.6956507462686563 1.569740298507462
H -0.7158522388059702 1.2676507462686573 3.5705402985074617
H 0.3943477611940298 1.9193507462686572 -0.5551597014925382
C -1.76045223880597 -2.1592492537313435 -0.1734597014925381
C -0.5287522388059701 -1.936549253731343 0.464840298507462
C -1.8068522388059702 -2.121249253731343 -1.5681597014925381
C 0.6114477611940299 -1.614449253731343 -0.2582597014925381
H -0.4544522388059702 -1.954049253731343 1.5506402985074619
C -0.6479522388059701 -1.8270492537313432 -2.2998597014925384
H -2.74345223880597 -2.290549253731343 -2.092259701492538
C 0.5698477611940298 -1.5506492537313434 -1.6506597014925382
H 1.5072477611940298 -1.351949253731343 0.2991402985074618
H -0.7173522388059701 -1.7640492537313435 -3.3840597014925375
C 1.7791477611940298 -1.082849253731343 -2.4255597014925376
H 1.4739477611940297 -0.9102492537313429 -3.464259701492538
H 2.1252477611940295 -0.1337492537313434 -2.0010597014925384
C 1.3965477611940298 2.0964507462686566 1.997440298507462
H 1.51704776119403 1.8448507462686567 3.057640298507462
H 2.1256477611940294 1.5207507462686571 1.4165402985074618
C 3.94864776119403 -1.4275492537313434 -3.522959701492538
H 4.81734776119403 -2.087049253731343 -3.615159701492538
H 3.4305477611940303 -1.3641492537313429 -4.484459701492538
H 4.26984776119403 -0.441449253731343 -3.176459701492538
C 2.60904776119403 -3.4296492537313434 -2.8992597014925376
H 1.9825477611940296 -3.869549253731343 -2.119359701492538
H 2.06294776119403 -3.373349253731343 -3.845759701492538
H 3.5215477611940305 -4.019849253731343 -3.0234597014925377
C 3.7281477611940304 -2.060049253731343 -1.156659701492538
H 3.9048477611940298 -1.032549253731343 -0.8295597014925382
H 3.12924776119403 -2.623249253731343 -0.4404597014925382
H 4.68244776119403 -2.5769492537313434 -1.3005597014925383
C 3.1110477611940297 3.755250746268656 2.588740298507462
H 3.40124776119403 4.809350746268656 2.534540298507462
H 2.9823477611940303 3.461750746268656 3.634840298507462
H 3.86514776119403 3.1392507462686563 2.091540298507462
C 1.99744776119403 3.9574507462686572 0.40494029850746194
H 2.67914776119403 3.230350746268657 -0.04295970149253803
H 1.03214776119403 3.981150746268657 -0.10175970149253821
H 2.4399477611940297 4.958250746268657 0.368240298507462
C 0.7418477611940297 4.4992507462686575 2.475440298507462
H -0.18475223880597014 4.424250746268656 1.901240298507462
H 0.57844776119403 4.189650746268656 3.511940298507462
H 1.1210477611940297 5.524350746268658 2.4432402985074617
N 3.00114776119403 -2.025349253731343 -2.490159701492538
N 1.7831477611940298 3.586450746268657 1.862540298507462
C -3.55075223880597 -3.8435492537313434 0.6444402985074619
H -2.62515223880597 -2.2736492537313433 1.7424402985074618
H -4.67195223880597 -1.3478492537313436 1.5102402985074619
H -4.83415223880597 -1.6757492537313432 -0.1945597014925382
H -3.7169522388059697 0.17335074626865676 -0.900559701492538
H -3.9132522388059705 -4.043149253731343 -0.34225970149253815
H -4.35435223880597 -3.9354492537313432 1.3449402985074619
H -2.78115223880597 -4.545049253731343 0.8904402985074619
H -5.24235223880597 1.138950746268657 1.5249402985074618
H -5.92805223880597 0.6501507462686567 -0.006059701492538094
H -4.89895223880597 2.059650746268657 0.08004029850746197
C 0.6962282544300449 -4.538385023271021 0.856425581100797
O 1.533075158311292 -3.827323224179703 1.3910786236783075
O 0.9364672454732041 -5.587582171209881 0.2480654607448316
O -0.5204039883071416 -4.318803444088786 0.8409885990083921
O 3.4745713391448856 3.9958118197658417 7.315829417105779
H 3.0692609559715307 3.172466118972142 7.626944680595698
H 4.026226097689271 3.7176359474861336 6.569332829198803
O 4.908487905899563 -3.185344556890913 4.015939659428115
H 5.542466246396739 -3.5825157531957528 3.4000712794099237
H 5.458400463839472 -2.6409846465518667 4.599232391198064
O -7.248028675017679 -4.648880611439845 -4.077396334673793
H -7.421187471820866 -3.7776581671782843 -4.464636364377059
H -6.617500316217309 -5.056239562995998 -4.690139851681997
O 5.118820872493868 6.55222290811763 -2.28648478112235
H 5.882428342484354 6.1295872106710885 -1.8654740260119782
H 5.4609338820711075 7.407534070545877 -2.587089918143736
O -6.150111440664848 3.6789302643418096 9.082877271409707
H -5.875520686300012 3.9864143452434124 9.959815589941543
H -5.879363178023012 4.394722651638316 8.488488021115934
O 5.199717159679707 -3.5722291763495884 7.01458183507377
H 4.686986639371104 -2.796207075195458 7.286362020084375
H 4.853141200809896 -3.7854913545473385 6.135169365078137
O 11.942074490885808 4.845180255942814 -4.640225923903655
H 11.047992382624894 4.961634019726947 -4.995223193594888
H 11.83826404599285 4.1575095729470855 -3.965470881255352
O 10.083577721254525 1.0908604406590667 5.20781291155276
H 10.397465354641684 1.573319414725436 4.428277634064027
H 9.501064633873465 1.7228187417478158 5.65532732809686
O 4.794538461564521 3.379770990405116 -7.613751625160818
H 4.819208148880401 2.4490251454361647 -7.345291319899928
H 4.047793511615362 3.4260422750935913 -8.229538026633524
O -1.406743161038823 -1.5902543052492577 11.795282520573686
H -2.0573915170744215 -2.136602467601829 12.261252218281749
H -0.9902650379936262 -2.203420608232701 11.171155127960315
O -2.1752865101920764 3.2067560423535255 7.584409168378464
H -1.894744781435477 3.994230210024476 8.074458278751294
H -2.9923673303881277 3.484190822037677 7.14353410604294
O 5.22281058913166 -6.45815317267724 -2.7028759926426886
H 4.6440627239402 -5.920129544595575 -2.142029452970585
H 4.61230228520561 -6.906256320515979 -3.307396566349118
O 1.883284046662931 1.388068270896186 5.9313123189471275
H 2.5989362305331523 0.9346699283391939 5.460951551462894
H 2.1989399060980883 2.3004483570407235 6.014293648842098
O 2.246584429296672 -7.2406659031794165 3.5292776169098987
H 2.6680019200911493 -6.369562764259061 3.5798145016139507
H 1.4175464025729911 -7.128325676263434 4.018192300635565
O -7.066476534898287 -3.2129889293171865 0.907782832947883
H -6.834953128484722 -3.319104612200136 1.842717980981663
H -6.890306270528741 -2.2772956267911972 0.7277716503508791
O -8.013275726286285 -1.9471045730004612 7.195519490138022
H -8.07184317883231 -2.086165198029094 8.152702520163583
H -8.128329859765511 -2.8340708017620866 6.822671800449962
O 7.408133436329685 3.967978254383013 4.032487120738528
H 6.61702031491499 3.9338893701301316 4.591007786422344
H 8.139735101276026 4.019210892341221 4.665808654365474
O -4.603711063855756 7.30914131893205 1.093469601950655
H -4.804462898338933 6.443992795625115 0.705933680426635
H -5.403425574621959 7.533256515318116 1.5926599707668065
O 3.418408425429187 1.900738137317413 -11.780410145107272
H 3.6078490295988193 2.5572007758394726 -11.093288308300654
H 4.025328823601818 1.171987818237957 -11.581582211899777
O -5.865461089499945 -8.106375692692227 0.972480069959551
H -6.353342813235519 -7.272514772910791 0.8975484544286836
H -5.979344627943448 -8.36162449563794 1.9002949936196343
C 7.719541091011305 -8.312468570493898 0.5581680828739319
O 8.72362208574153 -8.869059979279488 0.8970568802509353
O 6.715460096281079 -7.755877161708306 0.21927928549692854
O -1.9708477961634951 -2.1193804097818454 -17.692022603223414
H -1.8698349954193363 -1.1557032788658805 -17.682527428901906
H -1.0798675578034 -2.449989380346514 -17.502777080861698
O 9.046501826332761 4.622953052524975 18.281908031264656
H 9.779415502373823 5.190604381412694 18.56400175537774
H 8.258058637799596 5.164728018100545 18.436177825557785
O -1.8436779424672625 12.69042560595363 -4.100452950694663
H -1.8798080508050319 12.550773002981055 -3.1422467502062257
H -1.5779647631242106 11.827772289426184 -4.452855711903489
O -5.8206971246510015 9.722267811239316 2.7954305106006796
H -6.469816492905801 10.176245754218911 3.3535661840211386
H -5.571919638451451 10.388092224939138 2.13683385347166
O 1.1690742236809193 -16.923991328206103 -4.213865343399968
H 0.38628626916618547 -17.404546963801437 -3.905196173795674
H 1.8949419818486213 -17.300423069507147 -3.693887376469001
O 2.647873432833291 -16.151202474507617 -13.104720894692841
H 2.6571206434417243 -16.175191015568124 -12.136058726600295
H 2.1046088352938055 -16.9143500848179 -13.352574170317684
O -3.010361632285325 3.107800856801767 -11.620857175525868
H -3.217246876026774 3.0740024273720676 -12.566914002037961
H -3.7827193221651614 3.5412264646995246 -11.227706077852288
O -8.933347622118205 12.42267298119042 -9.274776605473633
H -9.32566380866033 12.09243987940319 -8.452583522821493
H -9.605739866086044 13.023032282094826 -9.630331558145464
O -20.68988444701249 1.9438562008511724 9.17912574575202
H -20.489806160260798 1.7238128358464984 8.256890985190516
H -20.512114080426628 1.1214944500307258 9.659834380843442
O 19.549473135289883 -2.2043710462169672 -7.399798189128125
H 19.63340998599107 -2.0681047433467183 -8.355493463102231
H 20.465821664876742 -2.2321015335727132 -7.0859537424749846
O -12.992107123566875 15.95033540410535 13.790397787456465
H -13.726628547019262 15.797645318248792 14.403693289698742
H -13.410101520677202 16.373151163917992 13.025238025355485
O -2.3422369900426094 16.346851955652916 -7.793351985661907
H -2.2761783918566403 16.434143732328018 -6.830552025010365
H -2.6234194417519046 17.225664455134787 -8.089302934140157
O -0.06621705783837317 -13.692124973545667 9.15390666109482
H -0.6602121521869648 -13.196709206690585 9.737602131987991
H -0.005688238602022722 -14.56584937238079 9.56851959049049
O -1.3386777788125217 -10.203841730941173 -2.923803553203967
H -1.3498757274078579 -10.243118990698441 -1.9556613840401518
H -2.0673587006331027 -9.603581102711276 -3.1421455708546135
O -9.736822770608352 -21.40110904825893 -12.775716756993987
H -9.529529714848776 -22.327194305224403 -12.579851898571
H -10.525713015681994 -21.451319334079567 -13.33615680974312
O 5.056345063221082 -6.099613517252883 13.38694542051186
H 5.013877715637398 -6.201623532297865 14.349628046365122
H 4.344431258778998 -6.669655082892716 13.059541552502205
O -4.79174912663606 -8.333504491027648 -13.520008186217282
H -4.506030075229076 -7.582256651691942 -14.061264746876391
H -5.6824574431992545 -8.08687325756923 -13.228848996446569
O 2.299862221515546 1.01071722925979 15.58863183844242
H 2.9605804640554156 1.3113570023866612 16.230530964231864
H 1.4571344075737267 1.1089134143657429 16.056744309051226
O -11.941604545370835 -4.408112653691871 -11.119355280964722
H -12.128876426259078 -3.624012008022713 -11.657019467041675
H -12.66267612576109 -4.425880823479026 -10.472283405207541
O -6.834761335000274 -20.3716881192085 6.245483606889765
H -6.853242496223718 -20.389926001502687 7.214138954900221
H -7.370530640080468 -21.136511146490477 5.986719364821589