194

C -5.0710522388059704 1.0783507462686561 0.47044029850746183
C -3.8153522388059704 0.1782507462686569 0.19534029850746193
C -4.11845223880597 -1.3219492537313435 0.5608402985074619
C -2.96945223880597 -2.3874492537313436 0.7034402985074619
C -2.52015223880597 0.7359507462686565 0.7384402985074618
C -2.20305223880597 0.7852507462686571 2.097440298507462
C -1.5755522388059702 1.205650746268656 -0.18965970149253808
C -0.9533522388059701 1.2695507462686564 2.508640298507462
H -2.91125223880597 0.4298507462686567 2.840840298507462
C -0.32655223880597006 1.6562507462686575 0.21554029850746192
H -1.7850522388059702 1.178550746268657 -1.2573597014925382
C 0.004447761194029898 1.6956507462686563 1.569740298507462
H -0.7158522388059702 1.2676507462686573 3.5705402985074617
H 0.3943477611940298 1.9193507462686572 -0.5551597014925382
C -1.76045223880597 -2.1592492537313435 -0.1734597014925381
C -0.5287522388059701 -1.936549253731343 0.464840298507462
C -1.8068522388059702 -2.121249253731343 -1.5681597014925381
C 0.6114477611940299 -1.614449253731343 -0.2582597014925381
H -0.4544522388059702 -1.954049253731343 1.5506402985074619
C -0.6479522388059701 -1.8270492537313432 -2.2998597014925384
H -2.74345223880597 -2.290549253731343 -2.092259701492538
C 0.5698477611940298 -1.5506492537313434 -1.6506597014925382
H 1.5072477611940298 -1.351949253731343 0.2991402985074618
H -0.7173522388059701 -1.7640492537313435 -3.3840597014925375
C 1.7791477611940298 -1.082849253731343 -2.4255597014925376
H 1.4739477611940297 -0.9102492537313429 -3.464259701492538
H 2.1252477611940295 -0.1337492537313434 -2.0010597014925384
C 1.3965477611940298 2.0964507462686566 1.997440298507462
H 1.51704776119403 1.8448507462686567 3.057640298507462
H 2.1256477611940294 1.5207507462686571 1.4165402985074618
C 3.94864776119403 -1.4275492537313434 -3.522959701492538
H 4.81734776119403 -2.087049253731343 -3.615159701492538
H 3.4305477611940303 -1.3641492537313429 -4.484459701492538
H 4.26984776119403 -0.441449253731343 -3.176459701492538
C 2.60904776119403 -3.4296492537313434 -2.8992597014925376
H 1.9825477611940296 -3.869549253731343 -2.119359701492538
H 2.06294776119403 -3.373349253731343 -3.845759701492538
H 3.5215477611940305 -4.019849253731343 -3.0234597014925377
C 3.7281477611940304 -2.060049253731343 -1.156659701492538
H 3.9048477611940298 -1.032549253731343 -0.8295597014925382
H 3.12924776119403 -2.623249253731343 -0.4404597014925382
H 4.68244776119403 -2.5769492537313434 -1.3005597014925383
C 3.1110477611940297 3.755250746268656 2.588740298507462
H 3.40124776119403 4.809350746268656 2.534540298507462
H 2.9823477611940303 3.461750746268656 3.634840298507462
H 3.86514776119403 3.1392507462686563 2.091540298507462
C 1.99744776119403 3.9574507462686572 0.40494029850746194
H 2.67914776119403 3.230350746268657 -0.04295970149253803
H 1.03214776119403 3.981150746268657 -0.10175970149253821
H 2.4399477611940297 4.958250746268657 0.368240298507462
C 0.7418477611940297 4.4992507462686575 2.475440298507462
H -0.18475223880597014 4.424250746268656 1.901240298507462
H 0.57844776119403 4.189650746268656 3.511940298507462
H 1.1210477611940297 5.524350746268658 2.4432402985074617
N 3.00114776119403 -2.025349253731343 -2.490159701492538
N 1.7831477611940298 3.586450746268657 1.862540298507462
C -3.55075223880597 -3.8435492537313434 0.6444402985074619
H -2.62515223880597 -2.2736492537313433 1.7424402985074618
H -4.67195223880597 -1.3478492537313436 1.5102402985074619
H -4.83415223880597 -1.6757492537313432 -0.1945597014925382
H -3.7169522388059697 0.17335074626865676 -0.900559701492538
H -3.9132522388059705 -4.043149253731343 -0.34225970149253815
H -4.35435223880597 -3.9354492537313432 1.3449402985074619
H -2.78115223880597 -4.545049253731343 0.8904402985074619
H -5.24235223880597 1.138950746268657 1.5249402985074618
H -5.92805223880597 0.6501507462686567 -0.006059701492538094
H -4.89895223880597 2.059650746268657 0.08004029850746197
C 0.6520714304887676 -4.611009319170055 0.5141673713378703
O 1.7503861775299143 -4.389024089912459 0.02816040325675928
O 0.4303471806999397 -5.391035921720722 1.447456351487558
O -0.40765830393416724 -4.089972703642621 0.14791319776490797
O -4.389407171475434 4.479305979080251 2.370978865100599
H -4.978161754884167 5.223991213108262 2.176609887030909
H -3.64028541714219 4.610264337247831 1.770455385200991
O -2.2181570771245953 -2.8241150074198087 -7.121683210874101
H -1.950646379357875 -2.759440850503377 -8.050780965099948
H -2.977227907144486 -3.426199648624474 -7.138038764620857
O 4.165351838182475 -2.2974071144383625 4.131794133866746
H 4.759573133088275 -2.401432106470102 3.3734754603440167
H 3.328290485424078 -2.678944228095463 3.8272950913058703
O -0.277182131422558 -1.428929382563807 10.509080313502398
H -0.9267275762925706 -1.5900200551754073 9.808289426613763
H -0.5502688378448259 -0.5812646493961804 10.89098356724514
O -7.225180104136536 -5.412888766053056 3.278937706906099
H -8.024923793174459 -5.873925480895613 2.9842810655229526
H -7.180282977391665 -4.6326773968579875 2.7060359599295256
O -6.986115011618926 -0.7855752087438233 -6.3668385759719275
H -7.042825967428025 -0.5789872757967025 -7.311863787462
H -6.040306561912992 -0.7151803603330875 -6.168211070117155
O 5.66700515166216 11.231079192080331 -0.34767457327105644
H 5.616058893705233 10.617368618678901 0.40047726144932705
H 4.914408914369082 10.983166264125739 -0.9054379891251992
O 4.31874933117137 4.643979887970105 -4.995457920079045
H 4.7619560387369875 4.478818084662812 -5.841186452172605
H 4.415326063760888 3.8088572511350764 -4.513581317131735
O 7.328949563151459 -1.178952140164092 -4.371672635879273
H 6.923713907934271 -1.097252842247173 -5.248072456372511
H 7.307169606043365 -2.1308146093369857 -4.191546520203479
O 6.651991874682871 -5.861956106697186 -3.0537397049551793
H 7.498318344993298 -5.929055397636661 -2.5866245717093004
H 6.775299396851155 -5.112109111825859 -3.65497733148828
O 10.731281534362868 -5.606185561185967 -1.1124529505123553
H 10.71817575477445 -5.029496646011658 -0.3338481145676626
H 10.19768847898208 -6.370187251225779 -0.8468558624904694
O -7.356546644535272 5.686057231881367 2.638110328598398
H -7.442069760116458 5.542886101535278 1.683565839830739
H -8.121728132629666 6.236959280276098 2.861641462117064
O 1.885098194838074 -6.404630994471476 7.500389641242068
H 2.3160538260200347 -6.4821037672448645 6.635957706193759
H 2.3345435793386065 -5.65553468754282 7.919693246756042
O -2.1310267074257183 -1.6903343776525517 -10.728524891487897
H -2.1306259861086616 -2.6354684164783757 -10.514775400318413
H -2.5420481411534572 -1.6487725324240503 -11.605049813174439
O 4.317244912773162 -4.276681523837119 4.582237043568229
H 5.090871331138881 -4.823621089324664 4.785526574560182
H 3.5919558528648827 -4.915090667040143 4.509083166349421
O 8.495747096631531 2.4596238704011433 -2.875425157469347
H 9.165676489420392 3.0290171817743796 -2.468051591143583
H 8.850279395699257 2.2758321607439242 -3.758312126836903
O 8.224264005977567 -1.0573659855301094 -8.000075221475745
H 8.194551129989453 -1.0731616224252791 -7.031656407245254
H 8.114467838325643 -1.9863649099961531 -8.252795905650753
O -3.3902700456599004 5.9477766662150175 -4.048991631213937
H -3.499494753395066 6.906196999083138 -4.141012203180914
H -3.599245848929753 5.776667894236637 -3.1183935191914753
O -5.927653499852907 1.247978661327009 -5.264616294647231
H -5.068542654813482 1.6756570270780506 -5.398732394740271
H -6.569701887492688 1.9272410725725138 -5.520230044078082
O 1.0641041627956147 10.963787513141384 -9.03404950805842
H 1.204203218875394 10.965943276481308 -8.075229940011345
H 0.6130926616287544 10.122911246331103 -9.20280280144975
C -5.850255255452484 -6.39259440131677 13.073226467337895
O -5.820291793537837 -6.953052073505859 12.015962240224125
O -5.88021871736713 -5.832136729127681 14.130490694451666
O 19.855740000605092 -1.1238471851038563 -0.8858788571523224
H 19.37471593864666 -1.9429697930650418 -0.6945117705259269
H 19.17133150180102 -0.43846234517527805 -0.8576906989854916
O 2.820758392044066 -9.976858214963976 -16.48430992597294
H 2.8183115799889116 -9.793552310367447 -17.43581416419304
H 2.4293199281498072 -10.860577649513854 -16.415188046058205
O 20.074904235755167 -5.480770214434263 -1.5128568775027267
H 20.621623749803202 -5.574736992150256 -2.3073601025086115
H 20.007791796499635 -6.383386679288528 -1.1668202000086145
O 5.801843346015604 19.281422754217726 6.073162974217572
H 4.965632087038214 18.81407403523862 6.219119344849478
H 6.398856787061452 18.906048698836805 6.737716368654375
O 1.0392137637904217 0.15404022501988646 -13.104066970939552
H 2.0042768084039757 0.22559412980397386 -13.05405981613778
H 0.8732023126512537 -0.14238845280119072 -14.011553709881733
O 9.227590888844357 6.714751014370809 -16.133022759331265
H 9.229800182683295 7.677923774110004 -16.0269062628893
H 8.493400121692135 6.419354689112484 -15.573856529349245
O -19.549740212521066 -2.802086173764457 1.0094629831644641
H -19.820158728124284 -3.228160391376881 1.836688432727589
H -20.32152470617435 -2.274402309296919 0.7547859743141481
O 15.157823928148947 -18.128225525055964 2.7892563930055743
H 15.035554874620745 -19.06195887424059 2.560871480916842
H 14.321572533329125 -17.712569638234026 2.5306529655105487
O -5.457401924189241 13.723780444432279 -2.6205926875775294
H -4.934569694247283 14.49168496247535 -2.345026965102914
H -6.3401729596483225 13.900931881946413 -2.262410315815357
O -16.966948129315835 1.0746693594739272 2.9796221955517908
H -17.11388174796251 0.5726829424415518 3.7953350774694368
H -16.773454842639797 0.39405755820152066 2.317587552742192
O 0.18469190963765403 2.4517442625076766 -16.90836944000671
H -0.38224484679149473 2.7452724925119973 -17.63733531664301
H -0.42902292163360833 2.0249659560393773 -16.291785035966406
O 4.578341423539044 -3.8529539527351044 -12.836547580934182
H 4.2431000245585215 -4.758138913175237 -12.921522569622493
H 4.058914165476222 -3.4782846688626745 -12.109374839693244
O 0.5968776537478018 -20.3659876235877 -5.44139105979713
H 0.9791471102864246 -20.035953976069802 -4.614399396596288
H -0.3430656332722517 -20.480369599355118 -5.235514093855144
O 5.286611891762908 10.583954091676489 12.125805071875984
H 4.560632582112945 10.073940816717656 11.736179792632027
H 5.472789996515532 11.268166484340023 11.465386220436717
O -8.079555303280614 2.0212029037972745 -14.143290626284818
H -7.131845009547036 1.8412406581091019 -14.235084668456878
H -8.261838468917997 1.8445493316521935 -13.20812844394766
O -10.703291890689611 5.236749044010175 -3.4934978129950176
H -10.31833050071148 4.444653509122238 -3.8976719694383775
H -11.475504353903931 4.902558370895711 -3.0129081231765875
O -2.421706346027382 -4.50753176033559 16.545903842134297
H -2.079845777039401 -5.338857040564782 16.907838900843824
H -2.0670867241781656 -3.8298585899010567 17.14085421163811
O 6.38988312209543 -11.233592040772916 -2.713028141656695
H 6.363244035061754 -10.337374679891177 -3.0805225742623987
H 5.4563853337601955 -11.471653263133206 -2.6087655986148612
O 11.28338869512715 11.740796065384906 -1.9368028954173317
H 11.220334538377273 10.935090276219103 -2.471433339295414
H 10.538470944722546 12.281511685439707 -2.239600034870298
O 9.356526090049298 -2.136632918279502 -15.904796051780387
H 9.366105297861258 -2.06381567487598 -16.871011992831253
H 9.678517601683502 -1.2743516295130597 -15.601886181061714