194

C -5.0710522388059704 1.0783507462686561 0.47044029850746183
C -3.8153522388059704 0.1782507462686569 0.19534029850746193
C -4.11845223880597 -1.3219492537313435 0.5608402985074619
C -2.96945223880597 -2.3874492537313436 0.7034402985074619
C -2.52015223880597 0.7359507462686565 0.7384402985074618
C -2.20305223880597 0.7852507462686571 2.097440298507462
C -1.5755522388059702 1.205650746268656 -0.18965970149253808
C -0.9533522388059701 1.2695507462686564 2.508640298507462
H -2.91125223880597 0.4298507462686567 2.840840298507462
C -0.32655223880597006 1.6562507462686575 0.21554029850746192
H -1.7850522388059702 1.178550746268657 -1.2573597014925382
C 0.004447761194029898 1.6956507462686563 1.569740298507462
H -0.7158522388059702 1.2676507462686573 3.5705402985074617
H 0.3943477611940298 1.9193507462686572 -0.5551597014925382
C -1.76045223880597 -2.1592492537313435 -0.1734597014925381
C -0.5287522388059701 -1.936549253731343 0.464840298507462
C -1.8068522388059702 -2.121249253731343 -1.5681597014925381
C 0.6114477611940299 -1.614449253731343 -0.2582597014925381
H -0.4544522388059702 -1.954049253731343 1.5506402985074619
C -0.6479522388059701 -1.8270492537313432 -2.2998597014925384
H -2.74345223880597 -2.290549253731343 -2.092259701492538
C 0.5698477611940298 -1.5506492537313434 -1.6506597014925382
H 1.5072477611940298 -1.351949253731343 0.2991402985074618
H -0.7173522388059701 -1.7640492537313435 -3.3840597014925375
C 1.7791477611940298 -1.082849253731343 -2.4255597014925376
H 1.4739477611940297 -0.9102492537313429 -3.464259701492538
H 2.1252477611940295 -0.1337492537313434 -2.0010597014925384
C 1.3965477611940298 2.0964507462686566 1.997440298507462
H 1.51704776119403 1.8448507462686567 3.057640298507462
H 2.1256477611940294 1.5207507462686571 1.4165402985074618
C 3.94864776119403 -1.4275492537313434 -3.522959701492538
H 4.81734776119403 -2.087049253731343 -3.615159701492538
H 3.4305477611940303 -1.3641492537313429 -4.484459701492538
H 4.26984776119403 -0.441449253731343 -3.176459701492538
C 2.60904776119403 -3.4296492537313434 -2.8992597014925376
H 1.9825477611940296 -3.869549253731343 -2.119359701492538
H 2.06294776119403 -3.373349253731343 -3.845759701492538
H 3.5215477611940305 -4.019849253731343 -3.0234597014925377
C 3.7281477611940304 -2.060049253731343 -1.156659701492538
H 3.9048477611940298 -1.032549253731343 -0.8295597014925382
H 3.12924776119403 -2.623249253731343 -0.4404597014925382
H 4.68244776119403 -2.5769492537313434 -1.3005597014925383
C 3.1110477611940297 3.755250746268656 2.588740298507462
H 3.40124776119403 4.809350746268656 2.534540298507462
H 2.9823477611940303 3.461750746268656 3.634840298507462
H 3.86514776119403 3.1392507462686563 2.091540298507462
C 1.99744776119403 3.9574507462686572 0.40494029850746194
H 2.67914776119403 3.230350746268657 -0.04295970149253803
H 1.03214776119403 3.981150746268657 -0.10175970149253821
H 2.4399477611940297 4.958250746268657 0.368240298507462
C 0.7418477611940297 4.4992507462686575 2.475440298507462
H -0.18475223880597014 4.424250746268656 1.901240298507462
H 0.57844776119403 4.189650746268656 3.511940298507462
H 1.1210477611940297 5.524350746268658 2.4432402985074617
N 3.00114776119403 -2.025349253731343 -2.490159701492538
N 1.7831477611940298 3.586450746268657 1.862540298507462
C -3.55075223880597 -3.8435492537313434 0.6444402985074619
H -2.62515223880597 -2.2736492537313433 1.7424402985074618
H -4.67195223880597 -1.3478492537313436 1.5102402985074619
H -4.83415223880597 -1.6757492537313432 -0.1945597014925382
H -3.7169522388059697 0.17335074626865676 -0.900559701492538
H -3.9132522388059705 -4.043149253731343 -0.34225970149253815
H -4.35435223880597 -3.9354492537313432 1.3449402985074619
H -2.78115223880597 -4.545049253731343 0.8904402985074619
H -5.24235223880597 1.138950746268657 1.5249402985074618
H -5.92805223880597 0.6501507462686567 -0.006059701492538094
H -4.89895223880597 2.059650746268657 0.08004029850746197
C -0.8911796346567615 2.9110218638139598 -2.7471599416217813
O -1.0110287543083443 3.230055870452521 -1.5742878302102745
O -1.5883962817915993 3.335393200801107 -3.6758307010418227
O -0.05411941908276363 2.114412117737385 -3.186922937289934
O -6.2004073095878605 1.8141388369533091 6.679189643370786
H -6.141431650821804 1.6753266380191136 5.721995618107274
H -6.089865971551445 2.7710721271934133 6.78417171286537
O -0.7322916906129946 -8.69289870031222 2.499250397475287
H 0.19158892347906153 -8.853978053756409 2.74310570231586
H -0.6858362397674586 -7.940890696517201 1.8899165008184804
O -4.99870998610814 -7.164926754340325 -0.6575063216670035
H -5.289264587878497 -7.2881573824059975 0.2586593798284243
H -4.1963276853212985 -7.704220523260853 -0.7231326767959234
O 3.1323289147078466 8.217791323891854 6.360431810055355
H 3.427679178251536 7.781035444845402 5.54742511829751
H 3.851400880184447 8.053546839889117 6.988859373295776
O 7.59961521628898 -1.285090464276419 -5.088533110136221
H 8.524109457747693 -1.0038570565423282 -5.016522522137317
H 7.290914661531505 -1.3118499717492516 -4.170410111539498
O 7.912701843569773 -4.997143144077127 4.572048565178224
H 7.529120870803831 -4.10829393907496 4.529857511636601
H 8.705783954623826 -4.884176901867812 5.117228661611646
O -0.9949619992161569 3.293635356601779 5.692441910800341
H -1.5464807545159145 3.2242306999673715 4.898730746024345
H -0.9917490272224345 2.3948431431223223 6.054552637097788
O -1.298925385673202 9.949984248774909 -6.895616804045115
H -1.8688637370147911 9.528437511051004 -6.234983789062997
H -1.5183324307893913 9.491634281248084 -7.720685164922893
O 1.7681609131773146 3.2953551289689695 -8.895096010859072
H 2.2126374602337053 3.47163141864657 -8.052282493101837
H 0.9472812861347968 3.807112433338187 -8.838324154880175
O 6.607483713285078 2.1924911030489995 7.243641342011708
H 7.561600765817658 2.3353378664533695 7.152961635619143
H 6.469240381464915 2.135896608473827 8.20105859101605
O -1.9342156495439806 -5.976290930741835 -7.538677250165962
H -2.050326717337825 -5.9596948285445315 -8.500555696866808
H -1.0570146159020914 -5.587935512793535 -7.402074321105855
O 7.8922768729092185 -4.1587482084778475 -1.8211124575752282
H 8.629727709444667 -3.6392334520847953 -1.4672225898437032
H 8.180280419188982 -5.077644795514456 -1.7132006233643748
O -2.252585265491509 -3.464557620685054 -10.11831433250065
H -2.815960932548658 -3.1960641646269856 -9.377040780617198
H -1.8307001518999044 -4.279951173081358 -9.80830102643084
O 4.9793907332073 6.722041050390985 -5.988788151723089
H 5.123858415957313 5.912635208153182 -6.501583069884486
H 4.666928783742176 6.401909611003861 -5.129227021871127
O 4.058555359330614 3.6910460397839735 7.38843052869969
H 4.660991583041885 2.9386207630573793 7.288961155506676
H 3.5309538779902105 3.466770767062753 8.169647030850811
O -4.7777334594704275 0.1535456747738324 -4.209816092498511
H -4.423724782390831 0.995133709364446 -4.534430931170842
H -5.457419224999846 0.4163156410988822 -3.571113384476838
O 2.0096408145944853 -4.139529766254709 5.618672019310704
H 1.3590403289102893 -4.400826767309615 6.287559335805195
H 2.0622523041236054 -3.17601357090901 5.707162226543341
O 4.772141754518358 4.9153861391417255 5.3826678943835065
H 4.541324605254699 4.766224496476472 4.453452308599882
H 5.727971378232259 5.07350279522152 5.363938297455446
O 5.988934061762901 -5.145794640026157 2.507278300570554
H 5.313688925488801 -5.8399530778050615 2.473286741345877
H 5.709332063936034 -4.513818061648198 1.828021153760224
O 2.8205303358116867 -5.641572375364079 -5.458476091511808
H 3.788786640399212 -5.678699519831106 -5.450189918074432
H 2.549769370218847 -6.557212910920196 -5.2933917086715825
C -3.6221740387417958 7.040081087786934 -19.78173686789028
O -4.241513171945121 7.098871490883177 -18.759102532515836
O -3.0028349055384718 6.981290684690691 -20.804371203264726
O 8.844439619658363 -13.171816282447857 -3.982112728896153
H 9.563328434342132 -12.559686870730577 -3.764250817738598
H 9.158999500469744 -13.629044459558473 -4.776440381530775
O 2.0010698636242026 16.579300710885946 -10.410938741962207
H 2.8021895838362396 16.438178059996773 -9.884384900277047
H 2.296123072887454 17.147518480068765 -11.138286055690903
O -15.072457069587841 13.555882858874014 -10.00897876668219
H -15.050523318519163 13.66359311476647 -10.971727315494205
H -14.777879251666828 14.414768615363219 -9.670598639031557
O 3.1670390218196554 0.5905862334177663 -6.580690177973746
H 3.431751268001826 0.8584900918122598 -5.687873115928819
H 3.992036655195969 0.28675754388945607 -6.988156712357846
O 5.900665884952501 9.73685067858882 18.035932444068422
H 6.240030197428615 8.829301183187562 18.02355772328222
H 6.298838567075467 10.124826499956328 18.829591830420785
O -5.903802203120629 4.136575247083608 22.60896790188105
H -5.903358438845585 3.238832448838063 22.244241938764183
H -5.816587426877632 4.001061873162465 23.564473868682615
O -8.136365322272246 10.730256573239107 -3.444245156532232
H -8.947655074559943 11.073216363013879 -3.04032081048385
H -8.289504262564876 10.827732516510967 -4.39609012802145
O -9.015934949157021 -6.603168479796233 10.14796241469056
H -8.708656474112315 -7.1960085026322265 10.850164666892889
H -8.824065107804644 -7.088334876241852 9.33140777718038
O -10.578453215348542 -4.293740861784088 10.377533512312652
H -10.709798409988412 -5.242836562136503 10.522216435691936
H -10.23446826072366 -4.240232810065012 9.47322538800272
O -4.126543434173765 4.878959195002051 -9.982356833067701
H -3.5205139894876156 5.491930731815183 -9.539681371662455
H -3.638809301358397 4.595799367383866 -10.770327563494968
O -7.711549614930538 -13.495664224035924 -0.2931686178963919
H -7.955087067287676 -13.68090205134236 0.626257188536181
H -8.539244991876892 -13.614032278507068 -0.7829352061426202
O -4.836443265534384 -12.824280916818584 -4.431450513744632
H -4.848910835290666 -12.723951652659082 -5.395165178652033
H -5.749039184023241 -13.062368512257054 -4.2090883524945495
O 15.59437077705551 -8.524807568043157 3.02421683727579
H 16.142268480343443 -8.389564674547948 3.81192542767636
H 14.966251624735868 -7.787292044890378 3.0465580077451033
O -2.2032760917227714 6.581697074089108 14.94562844352424
H -1.9242590212115882 7.200266408295426 14.253899587654464
H -3.156503729530768 6.7357557488178825 15.0267760840309
O 16.447862845421884 -5.765062746748205 6.872156684347651
H 15.620947743769808 -5.348972894646979 7.158596916399843
H 16.850581052721303 -5.106547357802698 6.286377312628665
O -4.7833738650763244 -7.1365170640400395 -7.102687060416962
H -5.334768631624419 -6.376402989909256 -6.863610163516247
H -3.8858777325636633 -6.772863584921129 -7.137598141029394
O -4.420070927712258 7.118725721227342 17.513126750618813
H -5.012502629278833 6.979533493945547 16.759059406316418
H -3.6347376318089175 6.595286599798623 17.29352473604807
O -0.4701493288002583 -16.179992097099014 0.5462235468071643
H -1.3700670983889038 -15.87829337174634 0.7413984529789621
H -0.5179715986666524 -17.14213067765978 0.6509342272621303
O 9.586685427078303 -6.60339202649098 9.812711539122656
H 10.454915584810232 -6.374803163160793 9.448169522797787
H 9.715472433287491 -6.555075820463619 10.771899422473355
O 3.8975432763058295 -8.242016711053061 1.9731992028234424
H 4.060285760342148 -9.196049895234953 1.9252104096582423
H 2.934514571315955 -8.172689951379777 2.0552446661881416