194

C -5.0710522388059704 1.0783507462686561 0.47044029850746183
C -3.8153522388059704 0.1782507462686569 0.19534029850746193
C -4.11845223880597 -1.3219492537313435 0.5608402985074619
C -2.96945223880597 -2.3874492537313436 0.7034402985074619
C -2.52015223880597 0.7359507462686565 0.7384402985074618
C -2.20305223880597 0.7852507462686571 2.097440298507462
C -1.5755522388059702 1.205650746268656 -0.18965970149253808
C -0.9533522388059701 1.2695507462686564 2.508640298507462
H -2.91125223880597 0.4298507462686567 2.840840298507462
C -0.32655223880597006 1.6562507462686575 0.21554029850746192
H -1.7850522388059702 1.178550746268657 -1.2573597014925382
C 0.004447761194029898 1.6956507462686563 1.569740298507462
H -0.7158522388059702 1.2676507462686573 3.5705402985074617
H 0.3943477611940298 1.9193507462686572 -0.5551597014925382
C -1.76045223880597 -2.1592492537313435 -0.1734597014925381
C -0.5287522388059701 -1.936549253731343 0.464840298507462
C -1.8068522388059702 -2.121249253731343 -1.5681597014925381
C 0.6114477611940299 -1.614449253731343 -0.2582597014925381
H -0.4544522388059702 -1.954049253731343 1.5506402985074619
C -0.6479522388059701 -1.8270492537313432 -2.2998597014925384
H -2.74345223880597 -2.290549253731343 -2.092259701492538
C 0.5698477611940298 -1.5506492537313434 -1.6506597014925382
H 1.5072477611940298 -1.351949253731343 0.2991402985074618
H -0.7173522388059701 -1.7640492537313435 -3.3840597014925375
C 1.7791477611940298 -1.082849253731343 -2.4255597014925376
H 1.4739477611940297 -0.9102492537313429 -3.464259701492538
H 2.1252477611940295 -0.1337492537313434 -2.0010597014925384
C 1.3965477611940298 2.0964507462686566 1.997440298507462
H 1.51704776119403 1.8448507462686567 3.057640298507462
H 2.1256477611940294 1.5207507462686571 1.4165402985074618
C 3.94864776119403 -1.4275492537313434 -3.522959701492538
H 4.81734776119403 -2.087049253731343 -3.615159701492538
H 3.4305477611940303 -1.3641492537313429 -4.484459701492538
H 4.26984776119403 -0.441449253731343 -3.176459701492538
C 2.60904776119403 -3.4296492537313434 -2.8992597014925376
H 1.9825477611940296 -3.869549253731343 -2.119359701492538
H 2.06294776119403 -3.373349253731343 -3.845759701492538
H 3.5215477611940305 -4.019849253731343 -3.0234597014925377
C 3.7281477611940304 -2.060049253731343 -1.156659701492538
H 3.9048477611940298 -1.032549253731343 -0.8295597014925382
H 3.12924776119403 -2.623249253731343 -0.4404597014925382
H 4.68244776119403 -2.5769492537313434 -1.3005597014925383
C 3.1110477611940297 3.755250746268656 2.588740298507462
H 3.40124776119403 4.809350746268656 2.534540298507462
H 2.9823477611940303 3.461750746268656 3.634840298507462
H 3.86514776119403 3.1392507462686563 2.091540298507462
C 1.99744776119403 3.9574507462686572 0.40494029850746194
H 2.67914776119403 3.230350746268657 -0.04295970149253803
H 1.03214776119403 3.981150746268657 -0.10175970149253821
H 2.4399477611940297 4.958250746268657 0.368240298507462
C 0.7418477611940297 4.4992507462686575 2.475440298507462
H -0.18475223880597014 4.424250746268656 1.901240298507462
H 0.57844776119403 4.189650746268656 3.511940298507462
H 1.1210477611940297 5.524350746268658 2.4432402985074617
N 3.00114776119403 -2.025349253731343 -2.490159701492538
N 1.7831477611940298 3.586450746268657 1.862540298507462
C -3.55075223880597 -3.8435492537313434 0.6444402985074619
H -2.62515223880597 -2.2736492537313433 1.7424402985074618
H -4.67195223880597 -1.3478492537313436 1.5102402985074619
H -4.83415223880597 -1.6757492537313432 -0.1945597014925382
H -3.7169522388059697 0.17335074626865676 -0.900559701492538
H -3.9132522388059705 -4.043149253731343 -0.34225970149253815
H -4.35435223880597 -3.9354492537313432 1.3449402985074619
H -2.78115223880597 -4.545049253731343 0.8904402985074619
H -5.24235223880597 1.138950746268657 1.5249402985074618
H -5.92805223880597 0.6501507462686567 -0.006059701492538094
H -4.89895223880597 2.059650746268657 0.08004029850746197
C -2.0264265530821 3.9186270908667025 -1.7041256776924105
O -2.3108579320716562 4.434812386328701 -2.7739046408408305
O -1.0379585805517566 4.2009588189162805 -1.0172113258855124
O -2.683048512112556 3.0340329746573564 -1.1428866583015513
O -5.721217535016343 -6.183154375638877 -6.3059197082860505
H -4.782577765402142 -5.954228203295457 -6.380186439833852
H -5.839435554637123 -6.384037201653668 -5.365370648242264
O -0.8860819991517914 -1.7026460025911458 -9.266131884302316
H -0.8044119932793028 -0.7724082210791736 -9.524888598009369
H -1.836625842684398 -1.8226750667561273 -9.12114440353953
O 8.552817769679377 -3.992910893254237 -1.812150365495671
H 9.293208358704055 -3.4678999807024553 -2.1514918959413833
H 8.47002574780342 -4.719251369540183 -2.4481825485826567
O 5.577151834106672 3.251947116304063 -5.788182978165661
H 6.362751407940858 3.0819099086925936 -5.246991686181725
H 5.4042541572928915 2.4033661785952365 -6.222899816819979
O -7.43240583592396 -7.521808974876876 6.359007631087542
H -7.668692680641078 -7.551296238748053 7.298297993639517
H -8.103172419362473 -8.075177656731816 5.931436307464977
O 6.503573003860501 -7.263357355761556 0.7520702023564865
H 5.997086390836097 -7.683606471386213 0.04085339396135135
H 7.380480034229553 -7.670505912626737 0.6870620718501357
O 0.7927601045075368 1.224995345114698 6.110187337918505
H 0.19356896143178126 1.084216660081226 5.361776559802759
H 1.6569768150995963 0.9434644265671828 5.774282941794801
O -6.428912269808911 7.602510999403018 6.914731015330074
H -5.49717624754688 7.523933586819664 6.660445876261676
H -6.775791195949692 6.703408952553086 6.81347656234316
O 6.849143114860567 0.7832189694994076 -6.085522008939371
H 6.723796642239446 0.1869662627829598 -6.839006135138957
H 6.072653738218 0.6228783577395465 -5.528460898753323
O -5.063136751254751 6.878733212154598 -0.5843290603240612
H -4.244543306112321 7.39620304175879 -0.5512065012553888
H -4.7639875469372654 5.980404533728125 -0.7904292383267901
O 6.722071567900855 8.087569595330098 -1.3906005992695616
H 6.7167180900184285 7.122064374796827 -1.3085130466348085
H 6.700493750464325 8.241274254018588 -2.3470896059978825
O 0.7199701086726913 5.759624858085569 -4.357226490179089
H 0.12763371201712337 5.078465011827808 -4.004910986768864
H 0.3721621464669638 5.93625539498703 -5.244240142362752
O -4.3511332958340425 -2.805704019105108 4.0468788980776615
H -4.530563056516486 -3.2610073798554478 4.88322282707511
H -3.3850128905315184 -2.8220923996643577 3.9740453361660646
O -9.637809827964773 -5.199921498325724 -1.6041164591595798
H -9.690499394410311 -5.266108789822379 -0.6388131861245614
H -10.536614599504897 -5.405454380995136 -1.9022240925712584
O 2.222353972044479 9.285483769505605 1.9949132326571373
H 2.373279651803759 9.48717958586701 1.0592276050281209
H 2.402159017340427 8.33564690661801 2.06156174266278
O -0.2441165067110766 -1.7353103445458251 -5.547239249324046
H -0.2321060133806187 -1.9479861416116269 -6.4925392600573515
H -1.1809996714636863 -1.5808518356966847 -5.353966258590125
O 1.58383196604338 -8.054779677946023 0.32382936823484343
H 1.890750943476677 -7.137920739978163 0.38815499345333226
H 1.987732345415586 -8.491039262212045 1.0890117013940865
O -0.24933110436959716 -4.071722368116674 5.065862457734447
H -0.2289633224995249 -4.665060991505455 4.3000284102040425
H 0.10146029270435941 -3.235769039572872 4.7236792136452035
O -3.8213944008991168 9.580478310114652 -2.268355865418251
H -3.8081194178942575 9.539970648646463 -1.300290650110625
H -3.571840965194089 8.68550670412146 -2.5435119147680396
O -1.38986195778859 -10.066228934614724 2.1447991959299637
H -0.5187289949260796 -9.656070593632554 2.2537251030280387
H -1.4140769739580725 -10.319450771038452 1.2097835389219624
C 1.60598643700878 6.811781456573085 16.61386291480795
O 1.04007175288878 6.483498884236595 17.616254744531986
O 2.171901121128779 7.140064028909574 15.611471085083915
O 13.827091293380924 -9.193547620218567 6.320620222936515
H 13.950818460042637 -9.43025556787762 5.3891545538724825
H 13.403870505174497 -9.975165181027556 6.706521890936198
O 0.9461386814833457 22.166890018811223 2.7777916839291708
H 1.3463808097744128 22.117340895883913 1.8967023127197713
H 0.9379204750910812 21.247308711124255 3.0831842574086563
O 1.699730751191618 9.50490306024778 -1.7970340393892648
H 2.3500061281943156 8.856665582643206 -2.106707195463306
H 0.9480957775050669 8.96424166699759 -1.511215795604902
O 6.3673774998336805 -13.705388463786162 16.90427132358289
H 6.464572758816503 -13.754661094816424 15.941414820067115
H 6.665969370452595 -14.573508044021626 17.21438941965614
O 5.850790956713053 18.33700921649395 1.143143177838434
H 5.17170422185318 18.722406293332583 1.7169703788332935
H 5.599304130710255 17.403536746124914 1.0772230162020326
O -3.7881390811151103 -15.394154620367186 2.434246764333305
H -4.179782514322292 -15.224050499073776 3.3041015602876005
H -3.366456397101495 -14.554011891517181 2.1990747986070707
O -5.4089663870124784 16.983757504414267 -8.54475210126459
H -5.386042733234927 17.029687781685602 -9.512394738102833
H -4.804709899914408 17.686801549759654 -8.26267921634956
O -14.056985914757036 -4.463567758446793 9.6324576999532
H -13.108646355366705 -4.512355852064247 9.825432203234142
H -14.471403005468948 -4.924709198167381 10.377151591292652
O -6.371139225373973 2.989536852089731 -15.552318772374202
H -6.483002451628463 2.674265295541262 -16.461745966350414
H -6.083435753340966 2.2026340209434268 -15.065520466282159
O -8.448754282131684 -6.781140106592218 17.051147803542115
H -8.680583873200955 -6.349456261671381 17.887133123771495
H -7.510694485580666 -7.001345244426489 17.153692718901446
O 1.367087487905226 4.138257967984271 -8.773620173041767
H 1.2315373553482878 4.006686163280935 -7.823208483998064
H 1.8741627926367717 3.3593603140810435 -9.047764340179162
O 7.068773596382999 -1.1220058638680879 15.30986656270509
H 7.31391859303938 -1.3665809325261238 14.404850362128956
H 6.637816619098986 -1.91678682933059 15.658522904922924
O -9.75769546141423 12.460255503841008 4.893511712251286
H -9.76801945725684 11.609581096370846 4.42960027190396
H -9.730198329868125 13.115537661841945 4.180201719707814
O -4.551425307354964 -9.91633166700444 13.454604865677457
H -4.231355488154727 -10.026602574699222 14.36254924428955
H -3.8065310412145377 -9.503515585458645 12.9923523812187
O -4.887568449781046 6.603724164016318 -9.986167431215524
H -4.511129106504599 5.7178635730451095 -10.098023549053313
H -4.714898271300919 7.040167338952361 -10.833908139696241
O -8.527386138086076 15.6861574357846 -9.498306973792829
H -8.25520884910649 15.397031951808446 -8.614398983796539
H -7.847268248696403 15.320731201450226 -10.083853955761256
O 3.9775051014042964 -11.763491564151403 -9.737703230489519
H 4.295976437987039 -12.090251659291514 -10.592554799417849
H 3.0208686770686555 -11.914110601007433 -9.77120847889753
O -16.60079471977043 -5.447440307484813 2.474299951853666
H -17.055132409926255 -5.189457492079774 3.2903817413573653
H -17.31253383836662 -5.509126583853944 1.8196365462262927
O 1.9565508624443728 -12.920074593480837 5.397378935329344
H 1.9778518550898347 -12.975349913787577 4.430188021612044
H 2.278347931711661 -13.78648655306408 5.688478414549266
O 2.4634623853193167 12.237085668908202 -10.488559110981965
H 1.9301097790921844 11.461859413544085 -10.257200931258714
H 2.9120829416506693 12.4678993622715 -9.661258331523285