194

C -5.0710522388059704 1.0783507462686561 0.47044029850746183
C -3.8153522388059704 0.1782507462686569 0.19534029850746193
C -4.11845223880597 -1.3219492537313435 0.5608402985074619
C -2.96945223880597 -2.3874492537313436 0.7034402985074619
C -2.52015223880597 0.7359507462686565 0.7384402985074618
C -2.20305223880597 0.7852507462686571 2.097440298507462
C -1.5755522388059702 1.205650746268656 -0.18965970149253808
C -0.9533522388059701 1.2695507462686564 2.508640298507462
H -2.91125223880597 0.4298507462686567 2.840840298507462
C -0.32655223880597006 1.6562507462686575 0.21554029850746192
H -1.7850522388059702 1.178550746268657 -1.2573597014925382
C 0.004447761194029898 1.6956507462686563 1.569740298507462
H -0.7158522388059702 1.2676507462686573 3.5705402985074617
H 0.3943477611940298 1.9193507462686572 -0.5551597014925382
C -1.76045223880597 -2.1592492537313435 -0.1734597014925381
C -0.5287522388059701 -1.936549253731343 0.464840298507462
C -1.8068522388059702 -2.121249253731343 -1.5681597014925381
C 0.6114477611940299 -1.614449253731343 -0.2582597014925381
H -0.4544522388059702 -1.954049253731343 1.5506402985074619
C -0.6479522388059701 -1.8270492537313432 -2.2998597014925384
H -2.74345223880597 -2.290549253731343 -2.092259701492538
C 0.5698477611940298 -1.5506492537313434 -1.6506597014925382
H 1.5072477611940298 -1.351949253731343 0.2991402985074618
H -0.7173522388059701 -1.7640492537313435 -3.3840597014925375
C 1.7791477611940298 -1.082849253731343 -2.4255597014925376
H 1.4739477611940297 -0.9102492537313429 -3.464259701492538
H 2.1252477611940295 -0.1337492537313434 -2.0010597014925384
C 1.3965477611940298 2.0964507462686566 1.997440298507462
H 1.51704776119403 1.8448507462686567 3.057640298507462
H 2.1256477611940294 1.5207507462686571 1.4165402985074618
C 3.94864776119403 -1.4275492537313434 -3.522959701492538
H 4.81734776119403 -2.087049253731343 -3.615159701492538
H 3.4305477611940303 -1.3641492537313429 -4.484459701492538
H 4.26984776119403 -0.441449253731343 -3.176459701492538
C 2.60904776119403 -3.4296492537313434 -2.8992597014925376
H 1.9825477611940296 -3.869549253731343 -2.119359701492538
H 2.06294776119403 -3.373349253731343 -3.845759701492538
H 3.5215477611940305 -4.019849253731343 -3.0234597014925377
C 3.7281477611940304 -2.060049253731343 -1.156659701492538
H 3.9048477611940298 -1.032549253731343 -0.8295597014925382
H 3.12924776119403 -2.623249253731343 -0.4404597014925382
H 4.68244776119403 -2.5769492537313434 -1.3005597014925383
C 3.1110477611940297 3.755250746268656 2.588740298507462
H 3.40124776119403 4.809350746268656 2.534540298507462
H 2.9823477611940303 3.461750746268656 3.634840298507462
H 3.86514776119403 3.1392507462686563 2.091540298507462
C 1.99744776119403 3.9574507462686572 0.40494029850746194
H 2.67914776119403 3.230350746268657 -0.04295970149253803
H 1.03214776119403 3.981150746268657 -0.10175970149253821
H 2.4399477611940297 4.958250746268657 0.368240298507462
C 0.7418477611940297 4.4992507462686575 2.475440298507462
H -0.18475223880597014 4.424250746268656 1.901240298507462
H 0.57844776119403 4.189650746268656 3.511940298507462
H 1.1210477611940297 5.524350746268658 2.4432402985074617
N 3.00114776119403 -2.025349253731343 -2.490159701492538
N 1.7831477611940298 3.586450746268657 1.862540298507462
C -3.55075223880597 -3.8435492537313434 0.6444402985074619
H -2.62515223880597 -2.2736492537313433 1.7424402985074618
H -4.67195223880597 -1.3478492537313436 1.5102402985074619
H -4.83415223880597 -1.6757492537313432 -0.1945597014925382
H -3.7169522388059697 0.17335074626865676 -0.900559701492538
H -3.9132522388059705 -4.043149253731343 -0.34225970149253815
H -4.35435223880597 -3.9354492537313432 1.3449402985074619
H -2.78115223880597 -4.545049253731343 0.8904402985074619
H -5.24235223880597 1.138950746268657 1.5249402985074618
H -5.92805223880597 0.6501507462686567 -0.006059701492538094
H -4.89895223880597 2.059650746268657 0.08004029850746197
C 0.3833488947145343 1.9852303252628425 -3.9030733221730776
O 0.3373568162069969 1.6490108198364855 -5.076366410657541
O -0.5988495799479996 2.2272729503750974 -3.1922055509952303
O 1.419222345125935 2.1354679102711667 -3.2450131067036674
O 6.7569113219085555 3.5461247304000274 -0.32679290223893975
H 6.912090843896688 4.124066305124558 -1.0889413189272297
H 5.809694185546938 3.347107557475706 -0.3729860377041412
O -0.17868506700305486 -7.073491882673382 6.182210692723788
H -0.9176014625115989 -7.683833955961614 6.039198557144729
H -0.588569783856161 -6.305306380540442 6.6074723739307935
O 9.485610505024248 0.25147705803743436 -4.526405209386982
H 9.022133279748433 0.3784696891850441 -3.6849605646331876
H 9.159812410306053 -0.603164279127741 -4.846414163303144
O 1.5131813313416338 0.5097374572329461 -8.619121463340523
H 1.285803653654429 1.4038718538853423 -8.322826965732771
H 0.859211493171389 -0.05539210011935597 -8.181041586525376
O 9.294951883719534 1.908096970025137 6.547638270065835
H 8.387071308784805 2.2455409083874227 6.518452536928921
H 9.785857324573302 2.506297772261576 5.9644319663929
O -9.427725497359294 -0.2775132679907921 2.0508835045353004
H -10.155904011166903 0.23710512167772535 1.671553408255129
H -9.85775670750138 -0.837578389429324 2.714481396599293
O -7.99246723833615 1.25545139359268 2.84667303925605
H -7.90757316184555 1.641935826543191 3.73120123878602
H -7.1254687370563925 0.8552976834656971 2.681892726869334
O -1.9912619724472722 -2.6889065302763697 -5.497099439264942
H -1.4691416841700158 -2.7314958585506126 -6.3122950664529345
H -2.1528471699725182 -1.7417176066637958 -5.371858426707631
O 4.868755351807756 5.8239073049308265 -4.891511338818961
H 4.719563155910901 5.740870163281981 -3.9376696964640754
H 4.574441409503224 6.723978903491724 -5.096967818709944
O 5.463714787701864 6.845552011645525 0.5846108601582768
H 5.693546138914904 7.249290009772981 1.4349875624306427
H 4.541220977275993 7.106368518297013 0.4433951957152969
O 7.236158775500739 -5.624600620759356 -5.287023628596865
H 7.082918267595874 -6.418572815924634 -5.8209645026096055
H 6.385471894014904 -5.468637579902665 -4.8500232809372354
O 1.814836799721892 -8.98295697572409 -3.7453761955211133
H 1.0506722127185104 -9.240033148303567 -3.20785253803073
H 2.576128984054068 -9.300612649720195 -3.2369560669337187
O 5.029253665925296 0.9929257574979247 0.7544164326497156
H 4.56410134960721 0.7695626244800078 1.5746051855184322
H 5.959606438443728 1.046269999698164 1.0200478592380402
O 9.848823704559912 -1.0524383156759538 3.12312184277853
H 9.617773053375247 -1.1428333794279322 2.186419282764723
H 9.69716942575401 -1.9371964987092651 3.48804084964917
O 0.48916913038633414 5.260930219329438 5.895045796192016
H 0.22334287275235143 4.344871485710473 5.7243409215904695
H -0.34245381667825336 5.710004921932717 6.108814665996265
O -2.216766579073549 -7.023573878939176 0.5920028583520143
H -2.753073599575506 -7.813002562979731 0.4242396637165049
H -2.3082984943257827 -6.87670425475991 1.5454246780539223
O 3.244462671291755 5.643296999992964 4.923271178235315
H 3.117226554098175 6.107401061041481 5.764333451732218
H 2.3949379768271295 5.203967357263686 4.767517517558761
O -3.0375463028296723 2.606919185291704 7.725320897509798
H -2.440849421333461 3.3193945713106614 7.450914241559478
H -2.527364826608376 2.116158059571574 8.387008378955962
O -6.165762116334245 -0.5078471716031983 5.4119990384068375
H -5.257365448456023 -0.6450982833952135 5.720130476269966
H -6.557763713853418 0.0660558153655888 6.087226447055745
O 3.2452257706655203 4.093412643077982 -6.010625101785073
H 3.2657429373018942 3.2207771760162363 -6.431402649188857
H 2.778344461251689 4.651087814360298 -6.650923618537428
C -5.319170858890815 6.275256951132602 -16.532621436759168
O -5.199221213087128 7.444060510969297 -16.76137584280337
O -5.439120504694502 5.106453391295904 -16.30386703071497
O -9.005373065755279 9.220094920592413 -2.1518992584412056
H -9.12201558225086 10.002396648389034 -1.5921083269926877
H -8.117465143572197 8.902756018240336 -1.9285665759280937
O 2.5144409030152843 2.776248067346856 21.246383027794973
H 3.0794335166183515 2.7562940076475972 20.459393485948645
H 1.6727916360794968 3.1297442514696354 20.92137702234725
O -9.549410670525356 -6.0325184368767655 -9.952932665185147
H -9.455325374019148 -5.895997446810797 -10.907645885556976
H -10.37897169935728 -5.582704545846593 -9.732801097299905
O 2.9399438143612566 -5.912383093214091 -8.845497235549825
H 2.8763131789290184 -6.069778511888917 -7.891481941482342
H 2.672779011001598 -6.756043375826337 -9.24024049348898
O 4.95391089031597 12.108112712601994 -7.1757706842572615
H 4.288803305331411 11.449410593628379 -7.426191880955297
H 5.3457925972381135 11.748760707157512 -6.365673894816139
O 12.201391118625617 15.882235779747301 -1.9190899466890419
H 12.327169029727958 16.159466779863422 -2.839030296142934
H 11.896939382524174 14.965086692670969 -1.9905646748093089
O 5.759173184676629 8.17590046661399 -11.854517870369111
H 6.408735247804677 7.67006116569174 -11.343476693273447
H 6.257319030994362 8.94459249177438 -12.170627393400624
O -14.305364339622596 -9.487010021293262 -2.616021811169251
H -13.378053339420235 -9.25792828431762 -2.4529781863692492
H -14.486731142289381 -9.118309545590286 -3.493591173901807
O 17.0742715963772 6.985165448413735 -5.890591758169251
H 16.796453525829325 6.214510328972952 -5.373025179402067
H 18.01037673574814 6.81728563144465 -6.076294422118223
O -8.695030703002493 -11.989169887851244 9.596892446206883
H -8.449467716545653 -11.139264504124705 9.992274559225471
H -8.333797436661715 -12.646036123094367 10.210895068828563
O -5.763271217522104 19.352851291174783 10.346791286429509
H -5.7376318054253534 19.590360425889337 11.285886270110328
H -6.12231348015652 20.142711751043414 9.9153158504213
O 10.699400910081676 7.51191918396161 2.572196562399023
H 10.977340189780868 7.315518221761314 1.664923849403039
H 9.802931865907869 7.148082963418252 2.6263112716639108
O 13.185356022943061 -4.196089130510164 8.938926149545669
H 13.015228859069696 -4.217000299339578 7.985203533671118
H 13.858216610436417 -3.5063923941572694 9.041585712968976
O -22.239278041424605 5.39850340069593 -0.33106602392121864
H -22.71836110329663 4.706482983625653 0.14909490648150658
H -22.38017800193772 5.176646033054231 -1.2637441323007934
O -14.313232637706875 5.037922839502529 9.525063940576953
H -14.210899836217887 4.903444443342702 8.570909385169026
H -15.219540684091111 5.367660270422039 9.619089979575651
O -9.166932254990844 8.867038767316242 -7.6429619922272565
H -9.23053847750797 9.04235633614832 -8.593848607663562
H -8.447163890285825 9.44396236066611 -7.346222016986065
O 1.4421933031770169 0.20300740916617688 -16.50458475549767
H 1.6697770419606828 -0.22971635118925615 -17.341198851700394
H 0.97788064036328 -0.48466831320598747 -16.004107187258356
O -16.55599028467691 -1.2355091698943994 -0.46639139654192263
H -17.114013803131677 -1.0944844144021042 0.313152783148817
H -16.58890784550868 -2.1936043542983894 -0.607572117997679
O -8.91398729027547 5.591996441939179 -14.491333428367616
H -8.922452203864584 4.937692890082536 -15.206023965709274
H -8.353550294812766 5.188737093563421 -13.81144063066764
O 18.937109234760907 5.345436879632334 -10.5367200722004
H 19.002185195443555 5.8915235675920155 -11.334543238995181
H 19.030714623428597 4.438713403840074 -10.86543349443864