194

C -5.0710522388059704 1.0783507462686561 0.47044029850746183
C -3.8153522388059704 0.1782507462686569 0.19534029850746193
C -4.11845223880597 -1.3219492537313435 0.5608402985074619
C -2.96945223880597 -2.3874492537313436 0.7034402985074619
C -2.52015223880597 0.7359507462686565 0.7384402985074618
C -2.20305223880597 0.7852507462686571 2.097440298507462
C -1.5755522388059702 1.205650746268656 -0.18965970149253808
C -0.9533522388059701 1.2695507462686564 2.508640298507462
H -2.91125223880597 0.4298507462686567 2.840840298507462
C -0.32655223880597006 1.6562507462686575 0.21554029850746192
H -1.7850522388059702 1.178550746268657 -1.2573597014925382
C 0.004447761194029898 1.6956507462686563 1.569740298507462
H -0.7158522388059702 1.2676507462686573 3.5705402985074617
H 0.3943477611940298 1.9193507462686572 -0.5551597014925382
C -1.76045223880597 -2.1592492537313435 -0.1734597014925381
C -0.5287522388059701 -1.936549253731343 0.464840298507462
C -1.8068522388059702 -2.121249253731343 -1.5681597014925381
C 0.6114477611940299 -1.614449253731343 -0.2582597014925381
H -0.4544522388059702 -1.954049253731343 1.5506402985074619
C -0.6479522388059701 -1.8270492537313432 -2.2998597014925384
H -2.74345223880597 -2.290549253731343 -2.092259701492538
C 0.5698477611940298 -1.5506492537313434 -1.6506597014925382
H 1.5072477611940298 -1.351949253731343 0.2991402985074618
H -0.7173522388059701 -1.7640492537313435 -3.3840597014925375
C 1.7791477611940298 -1.082849253731343 -2.4255597014925376
H 1.4739477611940297 -0.9102492537313429 -3.464259701492538
H 2.1252477611940295 -0.1337492537313434 -2.0010597014925384
C 1.3965477611940298 2.0964507462686566 1.997440298507462
H 1.51704776119403 1.8448507462686567 3.057640298507462
H 2.1256477611940294 1.5207507462686571 1.4165402985074618
C 3.94864776119403 -1.4275492537313434 -3.522959701492538
H 4.81734776119403 -2.087049253731343 -3.615159701492538
H 3.4305477611940303 -1.3641492537313429 -4.484459701492538
H 4.26984776119403 -0.441449253731343 -3.176459701492538
C 2.60904776119403 -3.4296492537313434 -2.8992597014925376
H 1.9825477611940296 -3.869549253731343 -2.119359701492538
H 2.06294776119403 -3.373349253731343 -3.845759701492538
H 3.5215477611940305 -4.019849253731343 -3.0234597014925377
C 3.7281477611940304 -2.060049253731343 -1.156659701492538
H 3.9048477611940298 -1.032549253731343 -0.8295597014925382
H 3.12924776119403 -2.623249253731343 -0.4404597014925382
H 4.68244776119403 -2.5769492537313434 -1.3005597014925383
C 3.1110477611940297 3.755250746268656 2.588740298507462
H 3.40124776119403 4.809350746268656 2.534540298507462
H 2.9823477611940303 3.461750746268656 3.634840298507462
H 3.86514776119403 3.1392507462686563 2.091540298507462
C 1.99744776119403 3.9574507462686572 0.40494029850746194
H 2.67914776119403 3.230350746268657 -0.04295970149253803
H 1.03214776119403 3.981150746268657 -0.10175970149253821
H 2.4399477611940297 4.958250746268657 0.368240298507462
C 0.7418477611940297 4.4992507462686575 2.475440298507462
H -0.18475223880597014 4.424250746268656 1.901240298507462
H 0.57844776119403 4.189650746268656 3.511940298507462
H 1.1210477611940297 5.524350746268658 2.4432402985074617
N 3.00114776119403 -2.025349253731343 -2.490159701492538
N 1.7831477611940298 3.586450746268657 1.862540298507462
C -3.55075223880597 -3.8435492537313434 0.6444402985074619
H -2.62515223880597 -2.2736492537313433 1.7424402985074618
H -4.67195223880597 -1.3478492537313436 1.5102402985074619
H -4.83415223880597 -1.6757492537313432 -0.1945597014925382
H -3.7169522388059697 0.17335074626865676 -0.900559701492538
H -3.9132522388059705 -4.043149253731343 -0.34225970149253815
H -4.35435223880597 -3.9354492537313432 1.3449402985074619
H -2.78115223880597 -4.545049253731343 0.8904402985074619
H -5.24235223880597 1.138950746268657 1.5249402985074618
H -5.92805223880597 0.6501507462686567 -0.006059701492538094
H -4.89895223880597 2.059650746268657 0.08004029850746197
C 1.9831405265737507 -3.1537671340346365 2.875229328910129
O 1.7240123030972196 -2.8337732507646045 4.025112791295627
O 1.2952396772032932 -2.8761239771826466 1.8861195458280566
O 2.973388500714723 -3.8047665750610653 2.5227281772907664
O -1.2969385867818037 -2.5638896498299104 7.740062337104007
H -0.5729397735661583 -2.137499662575524 8.222747176446969
H -2.006265222609175 -1.903816088592614 7.751042399095493
O 5.0699554392650255 6.356489772974463 -4.994655920072557
H 5.258757296903534 5.625210893313671 -5.601741099939687
H 4.646974747445153 5.927409275433208 -4.23574933472932
O -3.0020628611155225 -1.6973539128478234 -5.1387994469294265
H -3.2622711455010105 -1.6970184572390479 -6.072211945831544
H -2.1578280772382965 -2.172931319431635 -5.131335912995072
O 6.607337488464562 -5.226166439575165 -6.6700430140567155
H 6.599694600599065 -5.301518094429628 -7.636081870043251
H 6.611395217599669 -6.1454247207060675 -6.3635961316993885
O -5.5988353061825755 -1.187062739724661 -6.834495598275361
H -5.4378127911690655 -1.3713511859659682 -5.896904602616439
H -4.946560372016733 -1.7351326342022135 -7.296143456849739
O -7.41398302134705 2.8447680805110362 0.6100069485350219
H -7.443617914265651 2.518986265501628 -0.3021089098025471
H -7.524867192122205 2.0461665502946866 1.147503219133815
O -0.0572008426289603 -9.958373546892895 2.779553174065474
H -0.5603377753545189 -10.583229262356337 3.323038149644551
H 0.8679431427547355 -10.17801084531148 2.9661811670133553
O 1.7204477174639976 6.649994749948501 -3.336802005979388
H 2.0498819175546847 6.594186869954296 -2.4272274102253273
H 2.3236852835627944 7.2749802256751215 -3.7662895358076325
O 4.9134364728175655 -1.7461462337953981 -8.992675177114947
H 5.397826477781985 -2.434431866905425 -8.512470463222112
H 5.039958597811687 -1.978034640485463 -9.924974411818974
O 3.3239842801234274 -4.3370635161336875 -10.760818434448138
H 4.043676441739307 -4.5013576176416725 -10.133109905257761
H 2.7569894554831307 -3.6972656737597465 -10.304597507676068
O -0.22141262387201946 2.3505577776704545 7.688224723593054
H -0.9063665498000909 1.7630512211790876 7.335178660967538
H 0.18425179483647813 1.8350669965938935 8.40143407456861
O -1.8431881559249361 6.315792560463816 7.866164667211867
H -1.8477625165389366 6.213270555141217 6.902610999505907
H -1.144465828555449 5.713272234505554 8.162337438314339
O -0.5548081598486889 11.160301055408755 0.06572474205830936
H -0.9895272367094674 10.895637099660325 0.8903092869297904
H -0.44668862036124235 10.328437218669647 -0.4193264579265037
O 8.816325393282721 -5.202864828879896 -3.4199593977327543
H 8.529995365041867 -4.37132609948554 -3.0131107608359207
H 8.081090286104534 -5.443235531591834 -4.0035801707955745
O -1.9445318853649503 -0.634104699831202 5.282022194175458
H -1.6415748596233914 -0.24810837090452287 6.117600575602932
H -1.2181732491992014 -1.2181900613399044 5.017051693102825
O 3.173286231295087 -8.384981127496598 0.5555334995389816
H 3.287997512622864 -9.261301561574019 0.15820344070312897
H 2.253030101408007 -8.384223309176095 0.8589968835190707
O -4.5795314478203215 -4.9362823860171385 -10.065864728902636
H -4.143763006653932 -5.317468811881458 -10.84289119648286
H -5.019734596054332 -4.144327224362638 -10.409361678690635
O 0.3670576111565935 -5.930754415876398 3.260686878348241
H -0.005430541361601149 -6.063354920686962 2.37601912192351
H -0.3632429428715269 -5.543813384249071 3.7665521599493785
O -5.212604237278366 3.650366107135201 5.393795432349161
H -4.942394560264042 3.1640707160094332 6.187187441331891
H -5.575002425888525 4.47979549697306 5.739738179729809
O 1.4418433014789382 -4.552611892060937 -8.001680511256584
H 1.5287919700584616 -3.6571165302941946 -7.641825897576976
H 2.2999071514511282 -4.7214912978926415 -8.419015053269142
C 2.770002988545116 16.754631037238383 -12.712569458982687
O 1.9467744299557461 15.887292829036959 -12.765836993342866
O 3.5932315471344864 17.621969245439804 -12.659301924622506
O -4.72322573160344 -8.5233238967226 -7.778364433254658
H -4.397879550781429 -7.966431717530167 -7.055185119198429
H -5.43501929624968 -7.999203106380176 -8.17536476418529
O 3.119337542858607 14.589102876932552 -0.01444610566650173
H 2.3247537013495383 15.100563785753158 0.20005707487190172
H 3.39495042438005 14.935371672247904 -0.8764770826216814
O 0.20601127300083721 1.30790075738649 16.818784135033926
H 0.05658421162584393 2.1647080916844605 16.391560420661655
H 1.170939316447912 1.2214280642369255 16.838741304393924
O 2.5080955378031864 10.813963660648634 10.400144463871662
H 2.4672387490245375 11.601070831850027 10.96384685055637
H 1.7635538135486106 10.2716733548848 10.701044429671912
O 12.120880037709192 11.440224395063705 -19.827686141320086
H 11.534602955833769 11.911816736607458 -19.21707398654021
H 12.632675285086396 12.1451173212054 -20.252131110353176
O 14.948693994860001 -2.3449457017147743 13.263353358811276
H 14.470205692731689 -1.592663052431928 12.883765269938161
H 14.334997322801403 -2.7048062175303844 13.92125817575756
O 3.2143062415834356 9.515393695222354 2.59773164386769
H 4.091118852433722 9.35526418508966 2.2175664924682374
H 2.6380069645912263 8.895168317233434 2.126391460839807
O 6.808994284908383 4.750194146556181 3.7916553836136204
H 7.05371018010581 3.966513114959727 4.306364552225994
H 7.498984494253848 4.8099448650363685 3.1139347133161124
O 14.592910774908017 15.629110816212338 -3.0393488930096737
H 14.918453190368353 15.844521575072871 -3.9262466873486703
H 15.375741236421945 15.292452249336506 -2.5780470155205384
O 14.138692145929335 0.4546818405140648 -14.416952763206263
H 14.73729917727251 -0.28471169759204396 -14.601165072060574
H 14.027424286082187 0.4315915219600164 -13.454638757876346
O 8.840758203630543 -7.142677184168612 4.956019421976422
H 9.488715021965888 -7.846873500379338 5.108423052864866
H 8.284048272453562 -7.161251728978553 5.748919783380061
O 12.550816276316025 5.195870510480765 3.822671655590475
H 12.575779083871062 5.208647650064968 4.7912690744611925
H 11.964251612621574 4.453496008864762 3.613425535063943
O -9.016330098997136 3.138049893474955 6.667905160440162
H -9.16077331905111 2.333693293223469 7.188591220088691
H -8.055669992063546 3.1676510908097724 6.5445444196727465
O -15.897423643601725 3.2555527380365437 -3.091436993108566
H -16.07020842331704 3.2727396718584307 -4.044756134899253
H -15.860108427483258 4.191531194576738 -2.8434171393898184
O -12.405464828567833 3.622667240281487 4.35774130370336
H -12.525997173450621 3.609996807595813 3.3963471229051736
H -11.631177772450847 3.058710721499049 4.504010042511366
O 9.038910890207347 -9.896099594794402 -13.45430789296792
H 9.30823222262919 -9.884716007933148 -12.523553472751342
H 9.460720702396994 -10.692535218332953 -13.810297674000035
O -10.93367465375986 4.132067193167228 7.546747473372756
H -11.405499770462761 3.286519127055753 7.5093725614204985
H -11.438906165132412 4.653871678837538 8.1881702223851
O 4.412822574398691 13.296269156719374 -9.868699420673163
H 4.168612006265905 13.430818860396958 -10.796721474588121
H 4.374182181906429 12.334914656280347 -9.753519609709294
O -7.581299840853342 1.737776884235977 -17.3756940112811
H -8.073992089102186 1.2693996816073936 -18.066233294358703
H -8.03188299744025 1.4866249516000938 -16.555413894471343
O 11.122317413815804 -9.80780052427357 13.42719959779526
H 10.740208139706127 -8.918939251631878 13.480916425113746
H 10.356067018488284 -10.383807647726522 13.285643708861322