194

C -5.0710522388059704 1.0783507462686561 0.47044029850746183
C -3.8153522388059704 0.1782507462686569 0.19534029850746193
C -4.11845223880597 -1.3219492537313435 0.5608402985074619
C -2.96945223880597 -2.3874492537313436 0.7034402985074619
C -2.52015223880597 0.7359507462686565 0.7384402985074618
C -2.20305223880597 0.7852507462686571 2.097440298507462
C -1.5755522388059702 1.205650746268656 -0.18965970149253808
C -0.9533522388059701 1.2695507462686564 2.508640298507462
H -2.91125223880597 0.4298507462686567 2.840840298507462
C -0.32655223880597006 1.6562507462686575 0.21554029850746192
H -1.7850522388059702 1.178550746268657 -1.2573597014925382
C 0.004447761194029898 1.6956507462686563 1.569740298507462
H -0.7158522388059702 1.2676507462686573 3.5705402985074617
H 0.3943477611940298 1.9193507462686572 -0.5551597014925382
C -1.76045223880597 -2.1592492537313435 -0.1734597014925381
C -0.5287522388059701 -1.936549253731343 0.464840298507462
C -1.8068522388059702 -2.121249253731343 -1.5681597014925381
C 0.6114477611940299 -1.614449253731343 -0.2582597014925381
H -0.4544522388059702 -1.954049253731343 1.5506402985074619
C -0.6479522388059701 -1.8270492537313432 -2.2998597014925384
H -2.74345223880597 -2.290549253731343 -2.092259701492538
C 0.5698477611940298 -1.5506492537313434 -1.6506597014925382
H 1.5072477611940298 -1.351949253731343 0.2991402985074618
H -0.7173522388059701 -1.7640492537313435 -3.3840597014925375
C 1.7791477611940298 -1.082849253731343 -2.4255597014925376
H 1.4739477611940297 -0.9102492537313429 -3.464259701492538
H 2.1252477611940295 -0.1337492537313434 -2.0010597014925384
C 1.3965477611940298 2.0964507462686566 1.997440298507462
H 1.51704776119403 1.8448507462686567 3.057640298507462
H 2.1256477611940294 1.5207507462686571 1.4165402985074618
C 3.94864776119403 -1.4275492537313434 -3.522959701492538
H 4.81734776119403 -2.087049253731343 -3.615159701492538
H 3.4305477611940303 -1.3641492537313429 -4.484459701492538
H 4.26984776119403 -0.441449253731343 -3.176459701492538
C 2.60904776119403 -3.4296492537313434 -2.8992597014925376
H 1.9825477611940296 -3.869549253731343 -2.119359701492538
H 2.06294776119403 -3.373349253731343 -3.845759701492538
H 3.5215477611940305 -4.019849253731343 -3.0234597014925377
C 3.7281477611940304 -2.060049253731343 -1.156659701492538
H 3.9048477611940298 -1.032549253731343 -0.8295597014925382
H 3.12924776119403 -2.623249253731343 -0.4404597014925382
H 4.68244776119403 -2.5769492537313434 -1.3005597014925383
C 3.1110477611940297 3.755250746268656 2.588740298507462
H 3.40124776119403 4.809350746268656 2.534540298507462
H 2.9823477611940303 3.461750746268656 3.634840298507462
H 3.86514776119403 3.1392507462686563 2.091540298507462
C 1.99744776119403 3.9574507462686572 0.40494029850746194
H 2.67914776119403 3.230350746268657 -0.04295970149253803
H 1.03214776119403 3.981150746268657 -0.10175970149253821
H 2.4399477611940297 4.958250746268657 0.368240298507462
C 0.7418477611940297 4.4992507462686575 2.475440298507462
H -0.18475223880597014 4.424250746268656 1.901240298507462
H 0.57844776119403 4.189650746268656 3.511940298507462
H 1.1210477611940297 5.524350746268658 2.4432402985074617
N 3.00114776119403 -2.025349253731343 -2.490159701492538
N 1.7831477611940298 3.586450746268657 1.862540298507462
C -3.55075223880597 -3.8435492537313434 0.6444402985074619
H -2.62515223880597 -2.2736492537313433 1.7424402985074618
H -4.67195223880597 -1.3478492537313436 1.5102402985074619
H -4.83415223880597 -1.6757492537313432 -0.1945597014925382
H -3.7169522388059697 0.17335074626865676 -0.900559701492538
H -3.9132522388059705 -4.043149253731343 -0.34225970149253815
H -4.35435223880597 -3.9354492537313432 1.3449402985074619
H -2.78115223880597 -4.545049253731343 0.8904402985074619
H -5.24235223880597 1.138950746268657 1.5249402985074618
H -5.92805223880597 0.6501507462686567 -0.006059701492538094
H -4.89895223880597 2.059650746268657 0.08004029850746197
C 2.0374717302388943 -2.2640771590856317 3.560005020202263
O 3.0751457021315556 -2.024271155918337 2.9620908896605638
O 1.8914945157596663 -2.2039793767143645 4.786263709674815
O 0.9727464314352058 -2.6039690822989954 3.031344540289383
O 5.775891979504238 -2.0760205233333138 -6.960033197557939
H 5.6216671270105945 -1.3699873256984945 -7.605555602754588
H 6.469704370415483 -2.6170033412686236 -7.366141435859989
O 7.346990296151697 8.703943451651641 -4.745350018212328
H 7.258416022030139 9.263654192799269 -5.531381723112209
H 8.04642002144807 9.133121148214984 -4.230018563278298
O 2.479524838840147 3.9084265978379205 -11.400414448001397
H 2.679895258499579 4.324197858267566 -10.54838551021451
H 3.1703393178303485 4.242547351387741 -11.992107461281758
O 6.046224351027764 -3.494156754225274 2.0570880285617084
H 5.286397574803572 -3.1404213577389215 2.543402634866511
H 6.672725783215624 -3.745388255696617 2.752315065172782
O 2.9078837674355293 0.6782657123484446 -8.106248152002781
H 2.6752591797662464 1.5700202690997784 -7.806870516523895
H 2.312100274905432 0.1005666066426022 -7.605980506041834
O 1.5885457577842943 -6.644066284730782 -4.548449229811594
H 1.6714294805977383 -6.390475279774147 -3.6168971659967637
H 1.6906034126680474 -7.607627902151712 -4.538692754383028
O -1.9597317919939645 6.092791927797356 -0.8249864511978053
H -1.2430350574804128 6.1775568074146054 -0.17835822507317511
H -1.6449358075433684 5.408857270456868 -1.4349854814940248
O -7.4723921503820065 3.678208952202421 4.958987726491343
H -7.384792038680579 4.643229190658619 4.95355479911818
H -7.36692525085113 3.4388639393799765 5.8920218321061215
O 7.687444332327048 3.6278619137111807 -5.945847491237985
H 8.35499597818568 4.330225500983968 -5.951096137228872
H 8.203027587101833 2.814135857176463 -6.050660451373148
O 1.9080039650843854 -4.423502777188077 -7.1623056482818015
H 2.8498322678766628 -4.571713047388202 -7.335396724789591
H 1.6963797864161299 -3.6326362838809354 -7.68067553655373
O -0.5681749854597858 6.804325620729484 -6.0144715630685175
H -0.32284701113712944 7.656730448115377 -5.6243593328526895
H -0.05524415422247264 6.158067166941742 -5.506324027824988
O -1.4999416196680793 -6.684185414608928 3.1943479194813045
H -0.6635437575959134 -6.209562219754046 3.31325458929783
H -1.991181651752636 -6.500495086092796 4.0091503730780005
O -10.73348459920778 2.3978481645146097 8.546589808522915
H -10.77798454359261 2.3741561421355852 7.578898845495286
H -10.782096613908394 3.3417848050929204 8.760090241544681
O -0.008501446189671746 4.966043255165341 -3.7554254437037202
H -0.05470487878248953 5.017881842530958 -2.7889134879698143
H -0.06551481468739961 4.016866038538116 -3.941903409019558
O -3.222534230453527 6.2014086611364645 -6.376708286238394
H -4.164787373450454 6.4274851693593975 -6.372735397851049
H -3.2136084281883055 5.237054945081697 -6.47107027374016
O 0.5839816453186368 -8.059130425701508 1.8775055355730939
H 0.12251257950862016 -8.872102489675138 2.1326331142447983
H 1.4975363743339707 -8.208872323804371 2.1637869798657183
O -9.636660843973115 -0.7949562616261989 2.0163970682832146
H -9.354627691247618 -0.8848331145779023 1.0937125019404064
H -8.822953094219912 -0.5621567796225313 2.488250905260728
O 4.504602598434024 -0.7016648409410866 4.43141362296649
H 4.8816167480508526 -0.24492401544324993 5.198365711569328
H 4.521900437233801 -1.6369566354664509 4.684182268503035
O -4.940787086219093 -2.87341995606323 -9.4766371782431
H -4.148520333794398 -3.3290981840342155 -9.154708455610821
H -5.397185206439584 -3.5438440247003142 -10.00691471722745
O 3.3809213467423027 6.037920288050492 -4.701303463820958
H 2.9874711649269114 6.901350860331973 -4.897904476481398
H 4.24681587506835 6.2555650965852845 -4.324714367546429
C 1.597881533783966 9.07070156210003 -3.0280600679821785
O 1.7378192210829304 9.867447646314263 -2.1457724854657365
O 1.4579438464850019 8.2739554778858 -3.910347650498619
O -0.4521376929612253 -8.261675736422522 -1.3280249807347446
H -0.6074483504319785 -8.175282667714232 -2.280591090910394
H -1.2792597389434115 -7.954758618289921 -0.9272345767235955
O -3.2733643876474403 -7.603069643800267 -12.223622310667523
H -3.686752960212332 -7.7730673803236225 -13.083376935284162
H -3.970522579338841 -7.1672583869195865 -11.710786129773801
O -0.07549508851109565 -14.328439215683524 6.6786496851822035
H -0.6783331936645582 -13.579881153246454 6.80199636343275
H -0.5283149234203219 -14.88940462012075 6.031166900517345
O 12.529622405503675 -0.8444068161275871 1.4627226853902906
H 12.248509001694705 -0.9111904243137081 0.53779968276976
H 12.95553027346365 -1.6965402227791717 1.6400164799183412
O -11.188990679132079 2.491848191281309 -12.532075313259757
H -10.716419641164133 1.8075842293138744 -13.029495458937966
H -11.307643328822483 2.102203499891672 -11.652836717943718
O -2.088050529126061 -9.119158591767402 10.674021253304161
H -1.9027396228743871 -9.234462545050055 11.618125179406354
H -3.01786170092673 -9.376946938651054 10.584811963957922
O 16.12143653926298 0.6417035747346596 -14.30147469957791
H 16.636657294669757 -0.10829836376231494 -14.634659366615352
H 15.68283903513966 0.29183109312543287 -13.511421903690572
O 10.082294988767945 -5.100856229678381 -11.356198526220258
H 9.757631867076372 -5.366421630835497 -12.229717977647496
H 9.523126642681895 -4.346109864739766 -11.118184598797221
O -4.113955601678144 9.907216364485675 -10.370241625182414
H -3.9895033429967834 10.100484573859683 -11.311584491227766
H -3.211751844218096 9.857822411887552 -10.020169401531769
O -1.7872535445578803 8.6322832607765 -7.598037155947641
H -1.4744046793322987 7.734756683064635 -7.786555024405494
H -1.00579677864964 9.187276078382759 -7.740410748027417
O 9.2876535972404 -2.477893900861452 -2.0053953784026883
H 9.171938426208875 -2.1157270452729637 -2.8966936027957884
H 9.678653269429768 -1.7463660970812838 -1.5044480029785117
O 9.12726055464272 -6.957867442436003 -1.1636037002046198
H 8.551959682772548 -6.584268396177226 -0.4791915317272093
H 9.465225598096335 -7.774050130172176 -0.7653733724505027
O -6.070530670459108 -1.1198313506330377 18.706254211051068
H -5.766826170305915 -0.3389829342261921 19.193087533741306
H -6.833047256279689 -0.7990909428968846 18.201619698266043
O 13.646165127266475 10.550442959543975 -3.7240124632932057
H 12.704742953024535 10.695744115907353 -3.546307030891593
H 13.667570026233614 10.25759224232031 -4.647452895601534
O -6.400686837970547 -9.108814937255795 11.131307347194252
H -6.311749413767316 -9.009232286573358 12.091068144038527
H -6.843024325766894 -8.293377289666838 10.851377116449875
O 10.270791651071097 0.5497113022065248 -9.246592227833224
H 10.625365302304214 0.7354256416887333 -8.364121227254788
H 9.602099381255437 1.2382333601266957 -9.37982123498316
O 4.334931363159245 15.35438280209927 -10.999944408644723
H 4.611031478060261 14.904611018641457 -10.187268934512012
H 3.8308356320844332 16.11940519734993 -10.684365301324393
O -4.336904920190407 14.94108586988721 8.102890444682652
H -3.981794202523364 14.816758302816147 7.209914302132252
H -3.6338077922546654 15.41666936927384 8.57026257489548
O 6.781741158726937 1.380625506983418 7.977502003476628
H 6.570659871533644 1.3275705633323738 7.033257744796169
H 6.344957683477397 2.194791082621962 8.269591981897818
O -7.272802785488272 11.267853899187209 -13.296865531643542
H -6.998841923680441 11.827452393383872 -14.038999164077984
H -7.027325580109009 11.781925047516385 -12.51300729165706