194

C -5.0710522388059704 1.0783507462686561 0.47044029850746183
C -3.8153522388059704 0.1782507462686569 0.19534029850746193
C -4.11845223880597 -1.3219492537313435 0.5608402985074619
C -2.96945223880597 -2.3874492537313436 0.7034402985074619
C -2.52015223880597 0.7359507462686565 0.7384402985074618
C -2.20305223880597 0.7852507462686571 2.097440298507462
C -1.5755522388059702 1.205650746268656 -0.18965970149253808
C -0.9533522388059701 1.2695507462686564 2.508640298507462
H -2.91125223880597 0.4298507462686567 2.840840298507462
C -0.32655223880597006 1.6562507462686575 0.21554029850746192
H -1.7850522388059702 1.178550746268657 -1.2573597014925382
C 0.004447761194029898 1.6956507462686563 1.569740298507462
H -0.7158522388059702 1.2676507462686573 3.5705402985074617
H 0.3943477611940298 1.9193507462686572 -0.5551597014925382
C -1.76045223880597 -2.1592492537313435 -0.1734597014925381
C -0.5287522388059701 -1.936549253731343 0.464840298507462
C -1.8068522388059702 -2.121249253731343 -1.5681597014925381
C 0.6114477611940299 -1.614449253731343 -0.2582597014925381
H -0.4544522388059702 -1.954049253731343 1.5506402985074619
C -0.6479522388059701 -1.8270492537313432 -2.2998597014925384
H -2.74345223880597 -2.290549253731343 -2.092259701492538
C 0.5698477611940298 -1.5506492537313434 -1.6506597014925382
H 1.5072477611940298 -1.351949253731343 0.2991402985074618
H -0.7173522388059701 -1.7640492537313435 -3.3840597014925375
C 1.7791477611940298 -1.082849253731343 -2.4255597014925376
H 1.4739477611940297 -0.9102492537313429 -3.464259701492538
H 2.1252477611940295 -0.1337492537313434 -2.0010597014925384
C 1.3965477611940298 2.0964507462686566 1.997440298507462
H 1.51704776119403 1.8448507462686567 3.057640298507462
H 2.1256477611940294 1.5207507462686571 1.4165402985074618
C 3.94864776119403 -1.4275492537313434 -3.522959701492538
H 4.81734776119403 -2.087049253731343 -3.615159701492538
H 3.4305477611940303 -1.3641492537313429 -4.484459701492538
H 4.26984776119403 -0.441449253731343 -3.176459701492538
C 2.60904776119403 -3.4296492537313434 -2.8992597014925376
H 1.9825477611940296 -3.869549253731343 -2.119359701492538
H 2.06294776119403 -3.373349253731343 -3.845759701492538
H 3.5215477611940305 -4.019849253731343 -3.0234597014925377
C 3.7281477611940304 -2.060049253731343 -1.156659701492538
H 3.9048477611940298 -1.032549253731343 -0.8295597014925382
H 3.12924776119403 -2.623249253731343 -0.4404597014925382
H 4.68244776119403 -2.5769492537313434 -1.3005597014925383
C 3.1110477611940297 3.755250746268656 2.588740298507462
H 3.40124776119403 4.809350746268656 2.534540298507462
H 2.9823477611940303 3.461750746268656 3.634840298507462
H 3.86514776119403 3.1392507462686563 2.091540298507462
C 1.99744776119403 3.9574507462686572 0.40494029850746194
H 2.67914776119403 3.230350746268657 -0.04295970149253803
H 1.03214776119403 3.981150746268657 -0.10175970149253821
H 2.4399477611940297 4.958250746268657 0.368240298507462
C 0.7418477611940297 4.4992507462686575 2.475440298507462
H -0.18475223880597014 4.424250746268656 1.901240298507462
H 0.57844776119403 4.189650746268656 3.511940298507462
H 1.1210477611940297 5.524350746268658 2.4432402985074617
N 3.00114776119403 -2.025349253731343 -2.490159701492538
N 1.7831477611940298 3.586450746268657 1.862540298507462
C -3.55075223880597 -3.8435492537313434 0.6444402985074619
H -2.62515223880597 -2.2736492537313433 1.7424402985074618
H -4.67195223880597 -1.3478492537313436 1.5102402985074619
H -4.83415223880597 -1.6757492537313432 -0.1945597014925382
H -3.7169522388059697 0.17335074626865676 -0.900559701492538
H -3.9132522388059705 -4.043149253731343 -0.34225970149253815
H -4.35435223880597 -3.9354492537313432 1.3449402985074619
H -2.78115223880597 -4.545049253731343 0.8904402985074619
H -5.24235223880597 1.138950746268657 1.5249402985074618
H -5.92805223880597 0.6501507462686567 -0.006059701492538094
H -4.89895223880597 2.059650746268657 0.08004029850746197
C -1.5334846922012335 2.670114089116361 -3.589568585160067
O -1.5663229157939869 2.6660581813882205 -4.810502940186485
O -2.471733501739444 2.350613201330689 -2.8504881983249826
O -0.5569087644567814 2.9943516858728136 -2.9041360045223628
O 6.7355381197663595 -0.8988397838232534 3.7653363856148725
H 7.006262452605954 -0.0003448903541674042 3.523711430532552
H 7.572662501387287 -1.3626873347809132 3.9170933079161747
O 6.723573395136548 -3.673954699206971 4.818872186694528
H 7.3391049156227295 -3.4632493402068483 5.536988859580348
H 7.082513477477005 -4.487646463128314 4.434125939258638
O 4.50159346070602 6.900159895882941 -2.81723763210619
H 4.686811150953409 5.949662208973052 -2.782367712427875
H 4.844309591550731 7.173859068108999 -3.681295709483863
O -7.319370268286082 5.673860187472223 2.4238923790861353
H -6.425796860458814 5.83534944317521 2.7621454530063256
H -7.886290267828599 5.7736633179364665 3.2033813100968653
O 7.639817581038567 3.870384319677041 -4.378922701962576
H 7.096472501565644 4.438347679420586 -4.945633477845113
H 7.416040850574024 4.154102547585572 -3.4798176545098105
O 6.200969460293884 5.197585336862939 -0.17228629808465
H 6.73642658203722 5.501503927384435 0.5759693520843081
H 5.793802960025416 6.008100305400576 -0.5132303860749854
O 2.0526013274135293 9.395868095392034 4.09995146410362
H 2.920780869759553 8.989932302164398 3.9569557616209874
H 1.4314838311500573 8.657408420020705 4.011338214609726
O 1.1947143110821732 -3.240397134162267 -7.710807282279388
H 1.3078750264922554 -2.9544501192516854 -6.79189688727256
H 2.0627225761668733 -3.5959919399007636 -7.953862687848673
O -0.47464474552019786 -4.203254704074691 7.91437723859992
H -1.0550477560825207 -4.071786392405036 8.679109731212158
H -0.5939916542947128 -5.137823844560999 7.687884895866991
O 9.167827590182235 -0.14907052257780085 -2.3954846564532355
H 8.934640822158629 -0.19406228594817487 -1.456034269605941
H 8.548437578637243 -0.7615420001347917 -2.8199804127069927
O -3.843149346443981 7.809733931419487 4.20253937177751
H -4.739702612696867 8.041452805644642 3.917116946241058
H -3.6892316486530854 8.376159998808122 4.973534051907922
O -5.120708874025672 -3.6237574536876522 -8.38962259943571
H -4.339009300333868 -3.9283578563819512 -7.904718765600046
H -5.843117682221131 -4.15989268693342 -8.029558063811715
O 3.5764300365379267 -3.325630700060857 5.348207811083992
H 2.6619366226040584 -3.5278705182429917 5.099675703071291
H 4.012138279517615 -4.191041743415662 5.361772372967848
O 1.604070154556566 1.8375486556415892 7.25566574207507
H 1.3449082868406894 1.9675734581402065 6.3310598617362
H 1.348788455431556 2.6658122363149035 7.688993146380483
O 2.469629283414967 -6.530145146365096 1.3491183738086534
H 2.5062583877394897 -6.1894242497617205 0.44273272948600795
H 2.692524662527285 -5.762544620176275 1.8969039399429017
O 5.532874042663082 -3.0815388534256742 -8.424226251680182
H 5.71862074319259 -2.134253372670346 -8.33987141724522
H 4.6943520437349795 -3.198515106770058 -7.952888413429177
O 5.3040324532547585 1.363103196467154 -0.9377993178602282
H 5.966320601244547 1.887911339827024 -1.41205471170981
H 5.334033360738326 1.7101892345569623 -0.03359072908588856
O -5.743963072917509 3.647474266003683 -6.38359965164212
H -5.423001488945985 4.073899832894408 -7.192371717440894
H -6.400156648663609 4.269726397993946 -6.0354987759133705
O 2.671286627561414 3.711985141937664 -5.092239082769978
H 3.4459366023253697 3.8937706640282803 -4.539212141783876
H 3.0338366321354755 3.233601771608791 -5.852941908764555
O 1.92013829325832 -0.024816611343398076 4.2978038446640285
H 2.802859136630207 -0.0213907517923162 3.8981045413582036
H 2.0607242849795933 0.35303211393044975 5.178955286835391
C -11.497895116516286 -3.102990684419175 -8.784637539591417
O -11.936119715579462 -3.0921584600514844 -9.898486775794938
O -11.05967051745311 -3.113822908786865 -7.670788303387895
O -11.936455987118503 2.248667376444631 5.037208715913435
H -11.497101866958912 3.0727870562297523 5.295592282321328
H -12.404340466066639 2.4789590489822757 4.220500809609568
O -2.019061097922947 15.306441771746073 -5.598094085279882
H -2.8274728533796383 15.197104251783085 -6.121050199373382
H -1.3173492018419113 15.372894253197117 -6.263035005142208
O 11.033061943548004 -5.916846262283476 1.546203719322224
H 11.113015318167307 -5.168023079534147 2.1559894651085214
H 10.112090897522828 -6.201585159288291 1.6446823323088702
O 6.002302095336255 -14.599279848081213 8.421163951044786
H 6.071123280540788 -15.07434370719398 9.26291529861242
H 5.306692627666047 -15.07323531435648 7.94110600790108
O -8.229310743289837 9.815957981424972 -0.27210000720004546
H -7.948096076520954 9.951196349235047 -1.1894855597166158
H -7.446426514336029 9.442786355382445 0.16010036979212772
O 14.507991369241761 1.5719984633771986 -13.993457474040884
H 14.978291941968914 1.1577891231068786 -13.254393640109512
H 15.13033634373974 1.506157278787505 -14.733263945646083
O -5.01066910510083 -16.416657600449184 6.690174873059235
H -5.932203702143813 -16.427532014786568 6.9895460314323286
H -4.774821214333228 -15.47680054645105 6.692711557986316
O -5.7582119717987075 -8.785739155838796 -18.784313327615667
H -6.0787369981541906 -8.462740102811546 -19.639826434542336
H -6.5084729364144 -8.649029989948096 -18.18649978374484
O -6.567001174006222 -4.868953987095251 17.10697131197672
H -6.882186750993611 -5.196499252317757 16.251202938998702
H -7.037828405429314 -4.030205289449519 17.224377805187522
O 16.24831748209334 -0.6591756215173508 1.1353757018750217
H 16.367040005334932 -0.8823241876968728 0.19992017819301644
H 16.49979811584139 -1.4697066056217771 1.6030924526509491
O 14.477136119351487 11.45035335758984 -9.249129828515983
H 14.359777082421326 11.352209186629253 -8.292279821954201
H 13.801816802936958 10.86825724520372 -9.62869521303146
O -8.578375095670236 -13.886920006166886 3.501126239314684
H -9.072863659246156 -14.086406161180081 2.6920195149879875
H -9.233383450168368 -13.99145858344452 4.207523921713497
O 1.8555430074397536 -9.822248704249898 1.4222290097052186
H 1.4504538985065356 -9.313848778257734 0.703619459271289
H 2.4329732299494755 -10.452806801558548 0.9662325531939153
O 3.3599657001947474 15.856702758218772 -10.48322435835733
H 4.039763230392033 15.723529835402466 -11.160799186303464
H 2.766775369788202 16.516219222601016 -10.87325667678866
O -14.969089020956549 -4.210467262835687 4.434201633655324
H -15.603962197018957 -4.902617723578558 4.672594475221222
H -15.249161277393494 -3.9304960854848376 3.5498161886557487
O -10.013051393664172 -9.702231749227145 0.6427589144512753
H -10.42249491931817 -10.066400461662802 -0.15643099106741865
H -10.484788054491181 -10.139498968022403 1.367482204058311
O 20.554283463987232 0.7210469787436331 -0.005230023913013859
H 19.828057566550598 0.3649867050051139 -0.5388819556602931
H 20.30040588488069 1.6432297528573656 0.14997000912467673
O 5.568116243462631 9.028202143557822 11.190302306207968
H 5.286401010015358 9.526598831442294 10.408506536425644
H 6.533997706616354 9.105394516857661 11.181568410149584
O 0.7197787687274833 -19.493739875907455 1.5021592207627288
H 1.372568488120784 -19.099319008529736 2.0998758078936395
H -0.13176615153273907 -19.28377310045375 1.9141630390515663
O -15.8760770047325 -1.7214606293757584 7.351605520199266
H -15.2595738840023 -1.6225054087603414 6.610593291323871
H -16.71012663586498 -1.9769547794341211 6.929650669067389