194

C -5.0710522388059704 1.0783507462686561 0.47044029850746183
C -3.8153522388059704 0.1782507462686569 0.19534029850746193
C -4.11845223880597 -1.3219492537313435 0.5608402985074619
C -2.96945223880597 -2.3874492537313436 0.7034402985074619
C -2.52015223880597 0.7359507462686565 0.7384402985074618
C -2.20305223880597 0.7852507462686571 2.097440298507462
C -1.5755522388059702 1.205650746268656 -0.18965970149253808
C -0.9533522388059701 1.2695507462686564 2.508640298507462
H -2.91125223880597 0.4298507462686567 2.840840298507462
C -0.32655223880597006 1.6562507462686575 0.21554029850746192
H -1.7850522388059702 1.178550746268657 -1.2573597014925382
C 0.004447761194029898 1.6956507462686563 1.569740298507462
H -0.7158522388059702 1.2676507462686573 3.5705402985074617
H 0.3943477611940298 1.9193507462686572 -0.5551597014925382
C -1.76045223880597 -2.1592492537313435 -0.1734597014925381
C -0.5287522388059701 -1.936549253731343 0.464840298507462
C -1.8068522388059702 -2.121249253731343 -1.5681597014925381
C 0.6114477611940299 -1.614449253731343 -0.2582597014925381
H -0.4544522388059702 -1.954049253731343 1.5506402985074619
C -0.6479522388059701 -1.8270492537313432 -2.2998597014925384
H -2.74345223880597 -2.290549253731343 -2.092259701492538
C 0.5698477611940298 -1.5506492537313434 -1.6506597014925382
H 1.5072477611940298 -1.351949253731343 0.2991402985074618
H -0.7173522388059701 -1.7640492537313435 -3.3840597014925375
C 1.7791477611940298 -1.082849253731343 -2.4255597014925376
H 1.4739477611940297 -0.9102492537313429 -3.464259701492538
H 2.1252477611940295 -0.1337492537313434 -2.0010597014925384
C 1.3965477611940298 2.0964507462686566 1.997440298507462
H 1.51704776119403 1.8448507462686567 3.057640298507462
H 2.1256477611940294 1.5207507462686571 1.4165402985074618
C 3.94864776119403 -1.4275492537313434 -3.522959701492538
H 4.81734776119403 -2.087049253731343 -3.615159701492538
H 3.4305477611940303 -1.3641492537313429 -4.484459701492538
H 4.26984776119403 -0.441449253731343 -3.176459701492538
C 2.60904776119403 -3.4296492537313434 -2.8992597014925376
H 1.9825477611940296 -3.869549253731343 -2.119359701492538
H 2.06294776119403 -3.373349253731343 -3.845759701492538
H 3.5215477611940305 -4.019849253731343 -3.0234597014925377
C 3.7281477611940304 -2.060049253731343 -1.156659701492538
H 3.9048477611940298 -1.032549253731343 -0.8295597014925382
H 3.12924776119403 -2.623249253731343 -0.4404597014925382
H 4.68244776119403 -2.5769492537313434 -1.3005597014925383
C 3.1110477611940297 3.755250746268656 2.588740298507462
H 3.40124776119403 4.809350746268656 2.534540298507462
H 2.9823477611940303 3.461750746268656 3.634840298507462
H 3.86514776119403 3.1392507462686563 2.091540298507462
C 1.99744776119403 3.9574507462686572 0.40494029850746194
H 2.67914776119403 3.230350746268657 -0.04295970149253803
H 1.03214776119403 3.981150746268657 -0.10175970149253821
H 2.4399477611940297 4.958250746268657 0.368240298507462
C 0.7418477611940297 4.4992507462686575 2.475440298507462
H -0.18475223880597014 4.424250746268656 1.901240298507462
H 0.57844776119403 4.189650746268656 3.511940298507462
H 1.1210477611940297 5.524350746268658 2.4432402985074617
N 3.00114776119403 -2.025349253731343 -2.490159701492538
N 1.7831477611940298 3.586450746268657 1.862540298507462
C -3.55075223880597 -3.8435492537313434 0.6444402985074619
H -2.62515223880597 -2.2736492537313433 1.7424402985074618
H -4.67195223880597 -1.3478492537313436 1.5102402985074619
H -4.83415223880597 -1.6757492537313432 -0.1945597014925382
H -3.7169522388059697 0.17335074626865676 -0.900559701492538
H -3.9132522388059705 -4.043149253731343 -0.34225970149253815
H -4.35435223880597 -3.9354492537313432 1.3449402985074619
H -2.78115223880597 -4.545049253731343 0.8904402985074619
H -5.24235223880597 1.138950746268657 1.5249402985074618
H -5.92805223880597 0.6501507462686567 -0.006059701492538094
H -4.89895223880597 2.059650746268657 0.08004029850746197
C 1.957108335203412 -1.0005712587196314 3.027766717926398
O 2.448246023117549 -1.9314557210134953 2.4080785802553444
O 2.5951752409171958 -0.13868242847963774 3.6431119318026197
O 0.7459983068896328 -0.776364125935416 3.1354330790912424
O 8.192919037051112 -2.955175329809633 -5.74389367697451
H 8.565301058179626 -2.5091607427200797 -6.51937415728564
H 7.521116473393782 -2.3372426392505283 -5.418620791996645
O 9.228174903673398 -5.43978988484791 7.580278278042522
H 9.37890952719809 -5.268298723252661 8.521998624889495
H 9.865369434552973 -4.863247289758478 7.132457208680325
O 7.099611774954165 -0.20783140947200796 5.155186084596121
H 7.12305586964504 -0.16750232980747493 4.187306290067101
H 7.770417715169219 0.4340968406283603 5.432511627226576
O 4.908286430467886 -6.508316863701372 3.531350176366389
H 4.014276250692964 -6.3384355491990085 3.864296860299057
H 4.786375447196313 -6.61187988967625 2.575643968314623
O 9.924511492160015 3.8031718654496744 -1.0571314427009222
H 10.42607107665182 2.9744627845403886 -1.0825597600439325
H 10.11145023808469 4.162990367002516 -0.17704821055047493
O 2.622334396972275 8.511585220450511 -1.22111594949411
H 2.934391848294263 7.675657327634615 -0.8432111175763408
H 3.4220696811308855 9.055795649498089 -1.277864768755812
O 2.395396130003626 1.2145720348580302 7.982652669120434
H 1.603947426128494 0.7774858793111439 8.331267067365284
H 2.2915812566450016 1.1545306859598554 7.021102122975292
O 7.151989521229392 4.842248638795686 1.558404790680979
H 7.6151704270700815 5.627491895844301 1.2300393956950257
H 7.620010453449115 4.103117856776793 1.141746611382505
O 8.132166733831953 1.291221817785164 -4.8976649450267224
H 7.702521316474968 0.49790739827630814 -4.54407704358852
H 8.163020214571047 1.8971592123245034 -4.142118863754933
O -4.520702180328655 0.5206150705327157 6.5365615243605255
H -3.968724356698656 0.968663821917789 7.194999186939883
H -5.153978066522109 0.014502634304949358 7.067385222175057
O -5.2071081081931 3.5441571639322387 7.418771683837915
H -5.7141555447775705 2.7932853523199483 7.762372871960419
H -4.289802744238765 3.3313492927395316 7.647300945682066
O -5.358500932969748 2.116239624824489 5.137519091772749
H -5.250540268806913 3.04142437383382 5.404624000177784
H -6.082996538128574 2.1412734597103604 4.494525025302108
O -7.80805573908615 -5.537387001830851 -0.11660010258584763
H -8.029384493587964 -5.844594718013839 0.7753664654245851
H -6.839213787859235 -5.544113713926422 -0.13278556480372064
O 4.920890786039166 1.3110760980600207 -7.461607388510982
H 5.05322344821518 0.8506586659014552 -6.619306247833895
H 4.054086617679613 1.0010920484151253 -7.764134026974861
O 0.7530838392704653 8.493300980895743 3.3807358166908252
H 0.7981441290942093 7.657708898801539 3.869328489090315
H 0.5613414924926188 8.22211048771201 2.4704322776672267
O -0.5698355734912977 -1.1843275988057282 -10.77364038016872
H -0.1369668336818115 -0.5996097492321235 -10.133564566389001
H -1.1662032162084133 -0.5966903801392434 -11.261482647974564
O 4.187804054393194 -8.951032403275459 4.778009446149981
H 3.2754859750950374 -9.062724475189627 4.47114146124891
H 4.698651124162355 -8.84845894631545 3.9610174623854326
O 4.801934564335147 -3.5611992001958157 5.128547830170436
H 5.352473850610908 -4.16475994399635 5.6496891542946335
H 4.665276624800601 -4.031852763501545 4.292622130595533
O 12.811476688113114 -6.208228735736102 0.5243718636227568
H 12.243329195446428 -6.078637449812112 -0.2498257094095564
H 12.224137511902658 -6.040016524739085 1.2765016984650641
O 1.6990070692585606 11.560679010995052 4.18024647598588
H 2.1007520698865854 11.100835832988425 3.4278419551254897
H 2.449452373799632 11.76229091462735 4.75916480313231
C 13.055276286937184 8.70094151107368 18.624000050811063
O 13.667368526859978 7.779830056199902 18.166053509360417
O 12.443184047014391 9.622052965947457 19.08194659226171
O 10.625694189025683 -4.646982604495183 -5.107283735816535
H 11.574806142232575 -4.588866831138958 -4.920799382405827
H 10.520495666215849 -5.519111434230262 -5.51629048324688
O 0.9270713414409842 13.867351187324022 -13.58931055126098
H 1.2801379159726367 13.700894897312894 -14.476217341382817
H 1.6707177136531417 13.669480668009369 -13.000413892260568
O 12.841857509664404 -3.324559799454663 13.101216838827234
H 12.982460878373177 -3.591735366921423 14.021985683737054
H 13.624129886012827 -3.6600251325853823 12.638102507619825
O -3.6507843216846196 7.740026256240465 -15.914628245921875
H -3.6832064146213526 6.865651735419224 -15.498232566155348
H -3.8990036379408104 8.347962346652992 -15.202053460154627
O -0.12116528971219509 12.135808720068146 6.744907498683579
H 0.8054184300116378 12.416610424143682 6.705405976801239
H -0.12345801129458911 11.273496582964956 6.302895659552236
O 2.932348553567652 -24.37936546540418 -9.083521872854465
H 2.4528400156267893 -25.18850376241199 -8.850425036202576
H 3.38818990942677 -24.606672744258226 -9.907840987984333
O 12.830851504643624 -3.6063466107257476 6.656705286581529
H 12.316822187553539 -2.7987793072444997 6.506451273590437
H 13.75209175377333 -3.312314840687579 6.594869488764591
O -9.570344027649652 2.6446955831791 3.5877075245047556
H -9.616547653304707 2.643041786363459 4.555607233582315
H -9.850809269077459 3.5389517251357105 3.3415223396870646
O -7.817756766478477 13.01845502968606 0.3634271089679283
H -6.867243487521713 13.149628002258744 0.498651051719598
H -8.028548456612894 13.592079006848591 -0.3885598194387536
O -7.623206678652403 19.082360237531226 0.7666241036395389
H -8.211500342356054 19.28047636828765 0.022562331418817028
H -6.7833329218521445 19.496616639143447 0.5176950963673623
O 15.98475271610228 14.92217327793465 -2.899467207091373
H 15.848517204844693 14.869869402253354 -1.9415154614584826
H 15.612934061149367 15.78348247026192 -3.142076579007523
O -5.5558789053776225 -10.589759377814971 -12.428116673846349
H -5.917111630692611 -11.425127701501454 -12.760739641848776
H -5.0753672943782595 -10.845275047133011 -11.626379635455487
O 2.344963403072239 -8.069028400350657 -11.0831234524643
H 1.8450751535714804 -8.668822482372551 -11.656992909817259
H 1.7565395876541672 -7.923878148666917 -10.327047555358073
O -3.2356932379543855 0.22353355546045903 -6.4221917470660985
H -3.5526263234567454 -0.5770801552696228 -5.977738754720493
H -4.03916209092858 0.7464435656910332 -6.563488837627061
O 10.885714258445987 -16.328366352106567 12.679581834778215
H 11.252640617108982 -15.904795034548975 11.889063180247629
H 11.078120026388252 -15.700557829434008 13.392181598756736
O 9.34251000355257 -2.094699657562412 19.61186881273954
H 10.204453252495275 -2.473658305351564 19.38293315416292
H 9.415871488835425 -1.1667327060249324 19.3426897392005
O -13.560294566469024 10.87489370050155 3.0250591878551294
H -13.579067697350041 10.853913035092614 2.056464980699251
H -12.646827477859405 10.639406833946847 3.246612246979379
O -2.562323755991649 6.3541779877027125 1.2415704651983899
H -2.569436232073473 5.49083266469417 0.8016254426975531
H -3.236502382177807 6.270337568749315 1.9325233640586976
O -1.9053539533483042 7.609794436894332 18.308304302255387
H -2.6297431461881864 7.688838327566117 18.94703720225683
H -2.315737592105015 7.1844269397336324 17.540443829447963
O -6.795480733228484 1.9656474019423515 -8.876452184227034
H -6.487533987156126 2.795842532184966 -8.48286330709139
H -7.728587759523455 1.916876061990855 -8.619752791593761