194

C -5.0710522388059704 1.0783507462686561 0.47044029850746183
C -3.8153522388059704 0.1782507462686569 0.19534029850746193
C -4.11845223880597 -1.3219492537313435 0.5608402985074619
C -2.96945223880597 -2.3874492537313436 0.7034402985074619
C -2.52015223880597 0.7359507462686565 0.7384402985074618
C -2.20305223880597 0.7852507462686571 2.097440298507462
C -1.5755522388059702 1.205650746268656 -0.18965970149253808
C -0.9533522388059701 1.2695507462686564 2.508640298507462
H -2.91125223880597 0.4298507462686567 2.840840298507462
C -0.32655223880597006 1.6562507462686575 0.21554029850746192
H -1.7850522388059702 1.178550746268657 -1.2573597014925382
C 0.004447761194029898 1.6956507462686563 1.569740298507462
H -0.7158522388059702 1.2676507462686573 3.5705402985074617
H 0.3943477611940298 1.9193507462686572 -0.5551597014925382
C -1.76045223880597 -2.1592492537313435 -0.1734597014925381
C -0.5287522388059701 -1.936549253731343 0.464840298507462
C -1.8068522388059702 -2.121249253731343 -1.5681597014925381
C 0.6114477611940299 -1.614449253731343 -0.2582597014925381
H -0.4544522388059702 -1.954049253731343 1.5506402985074619
C -0.6479522388059701 -1.8270492537313432 -2.2998597014925384
H -2.74345223880597 -2.290549253731343 -2.092259701492538
C 0.5698477611940298 -1.5506492537313434 -1.6506597014925382
H 1.5072477611940298 -1.351949253731343 0.2991402985074618
H -0.7173522388059701 -1.7640492537313435 -3.3840597014925375
C 1.7791477611940298 -1.082849253731343 -2.4255597014925376
H 1.4739477611940297 -0.9102492537313429 -3.464259701492538
H 2.1252477611940295 -0.1337492537313434 -2.0010597014925384
C 1.3965477611940298 2.0964507462686566 1.997440298507462
H 1.51704776119403 1.8448507462686567 3.057640298507462
H 2.1256477611940294 1.5207507462686571 1.4165402985074618
C 3.94864776119403 -1.4275492537313434 -3.522959701492538
H 4.81734776119403 -2.087049253731343 -3.615159701492538
H 3.4305477611940303 -1.3641492537313429 -4.484459701492538
H 4.26984776119403 -0.441449253731343 -3.176459701492538
C 2.60904776119403 -3.4296492537313434 -2.8992597014925376
H 1.9825477611940296 -3.869549253731343 -2.119359701492538
H 2.06294776119403 -3.373349253731343 -3.845759701492538
H 3.5215477611940305 -4.019849253731343 -3.0234597014925377
C 3.7281477611940304 -2.060049253731343 -1.156659701492538
H 3.9048477611940298 -1.032549253731343 -0.8295597014925382
H 3.12924776119403 -2.623249253731343 -0.4404597014925382
H 4.68244776119403 -2.5769492537313434 -1.3005597014925383
C 3.1110477611940297 3.755250746268656 2.588740298507462
H 3.40124776119403 4.809350746268656 2.534540298507462
H 2.9823477611940303 3.461750746268656 3.634840298507462
H 3.86514776119403 3.1392507462686563 2.091540298507462
C 1.99744776119403 3.9574507462686572 0.40494029850746194
H 2.67914776119403 3.230350746268657 -0.04295970149253803
H 1.03214776119403 3.981150746268657 -0.10175970149253821
H 2.4399477611940297 4.958250746268657 0.368240298507462
C 0.7418477611940297 4.4992507462686575 2.475440298507462
H -0.18475223880597014 4.424250746268656 1.901240298507462
H 0.57844776119403 4.189650746268656 3.511940298507462
H 1.1210477611940297 5.524350746268658 2.4432402985074617
N 3.00114776119403 -2.025349253731343 -2.490159701492538
N 1.7831477611940298 3.586450746268657 1.862540298507462
C -3.55075223880597 -3.8435492537313434 0.6444402985074619
H -2.62515223880597 -2.2736492537313433 1.7424402985074618
H -4.67195223880597 -1.3478492537313436 1.5102402985074619
H -4.83415223880597 -1.6757492537313432 -0.1945597014925382
H -3.7169522388059697 0.17335074626865676 -0.900559701492538
H -3.9132522388059705 -4.043149253731343 -0.34225970149253815
H -4.35435223880597 -3.9354492537313432 1.3449402985074619
H -2.78115223880597 -4.545049253731343 0.8904402985074619
H -5.24235223880597 1.138950746268657 1.5249402985074618
H -5.92805223880597 0.6501507462686567 -0.006059701492538094
H -4.89895223880597 2.059650746268657 0.08004029850746197
C 2.577069544914985 -1.4307012719124552 3.592616540754246
O 2.498907677170524 -1.2076141562808518 2.394326776185647
O 2.3221866734360344 -0.6161514655203478 4.4871414419354405
O 2.9231512369094315 -2.5055490718432956 4.096181882939442
O 1.8141668890088274 -3.9390735982895326 1.6183250094032937
H 1.5998267668540027 -3.6480397888288816 0.7192560517112389
H 2.532696659660685 -4.576976195950757 1.4927973674910422
O -2.1136134376182234 -4.723079566026698 7.192499041775757
H -1.381162971734132 -5.050703751163196 7.735772513647728
H -2.6894071920156253 -5.495107239811544 7.085743397394273
O -0.20752110706634308 -6.137756598354796 -3.219534709568848
H -0.2793884289249362 -6.618502005468553 -4.057798569274075
H 0.6960447958760427 -6.321052025022067 -2.921317691438136
O -5.220279623060884 7.322244288632437 3.8757103501108126
H -4.517332817512206 7.521334268591613 3.2391600179698545
H -5.633037420874849 8.182394465775591 4.04522323281996
O 8.742144249411247 -4.200241468900122 4.788141985717983
H 8.509190789062671 -3.355597715219623 5.201998206621016
H 8.135794718777968 -4.267096820327744 4.035259157526048
O 3.08216516128351 1.934435009953523 11.973309091230686
H 2.3105227106823145 2.272436540665268 11.494466475576337
H 3.6719338661041405 1.6174772502117034 11.272828829086462
O -3.8210511304392782 0.5195799905684513 5.46619883544443
H -3.8636538388307073 0.651405569040259 6.425247521903199
H -3.151570395224352 1.1553775120105367 5.172057710804945
O -3.5484627020102533 -8.352784090415838 -4.468771853054176
H -3.2414697000870745 -8.770740372432575 -3.65021507433144
H -4.416895953203182 -7.991576531323593 -4.235716641189906
O 5.3549528342506045 1.695076522233575 6.252434236095708
H 5.252504861965253 1.4624990546289012 7.187516848187934
H 6.314729742150907 1.7307042513214417 6.123900597380488
O -3.042254007732966 -7.566449156515986 0.18910983828359207
H -2.137766026959377 -7.778429062837473 -0.08645026197050809
H -3.000927481954119 -7.578580744815624 1.157152650938269
O -2.390927181937757 -10.955088717585781 1.5157582977309771
H -1.8139273968675238 -10.467907476593126 0.9085573068278321
H -2.56462051482281 -11.789507213795797 1.054739487275374
O -5.872906024477394 7.125956783063845 -2.8529574544452343
H -5.357889007365686 6.86016424132041 -3.629539165367482
H -6.460139409518779 7.820149633781424 -3.187942800102979
O -1.3862184730539524 4.051541482455936 6.131666014296645
H -1.9579657952135983 4.58249290840292 6.706264082330414
H -1.5016117964727216 4.448539255872504 5.255287618218411
O -6.195814614926748 -5.510482350363851 -6.087853782226243
H -6.1677102637511805 -4.887492429584263 -5.346192767373742
H -5.692311738851248 -6.275134177298132 -5.770435475177381
O -4.1829015111182155 4.850125786415371 3.5087214605244377
H -5.091449837342836 4.920255492098015 3.1791928271777916
H -4.212677233824136 5.288504190894431 4.372376325110825
O -9.532966748632331 7.370976804410756 -0.3835849340368207
H -9.3864221028934 6.845720488661405 0.41741308498112417
H -10.134220766761034 8.074196651135367 -0.09559639753457727
O -0.052089615296337044 -0.20167076929329342 8.956040069292271
H 0.24405100968693638 -0.8478792191988183 8.297494151071517
H 0.554016297126942 -0.3318931802047399 9.700781427699305
O -8.41667307195248 -0.18711990958098568 3.445855291402439
H -8.664981929021845 -0.4207192260629933 4.352906242418998
H -7.448161785958314 -0.2170060413945576 3.4532480126299907
O 7.245658723920643 -3.17073548527587 -1.733083270416107
H 8.011923393649214 -3.1339288758406223 -1.1410941773344474
H 6.514116591442323 -3.430517260307364 -1.1531509622364728
O -5.157782770093537 -0.21183042035000144 -4.95394014088971
H -5.079341551284756 0.6410676283913213 -4.500752265340243
H -5.927431266962665 -0.09985438824321724 -5.531923275419354
C 6.00263225205738 -16.045826547305914 -3.391143827727362
O 6.298062780969133 -15.702205075381686 -2.2832343802003763
O 5.707201723145628 -16.389448019230137 -4.499053275254348
O 17.053421944703047 -9.246211863983852 6.716756977308515
H 17.16410119642733 -8.657427246238683 5.955146752820667
H 17.175377439542338 -10.133326461144161 6.346464534658651
O 5.170197601320975 -10.744585051247794 -3.12050535273403
H 5.123940005053278 -10.308111827694946 -3.9844027522028105
H 4.286055754520197 -11.122953987949359 -3.001795257228067
O 12.34267717517681 -9.217893117614611 -4.820464511321872
H 12.97492855616941 -8.745926995548569 -4.257904712051702
H 12.009245239036202 -9.928704344793905 -4.252545073745213
O -3.666046642853277 0.5563747378889037 12.236041325258796
H -3.373416771475835 0.6142530216615363 13.15798775512615
H -3.199952830606409 1.2833448369072085 11.796458594002784
O 5.476042981468494 7.569460605616763 14.550735063509217
H 4.816647875320889 7.946858409984028 13.949289847261422
H 5.054772646648586 7.620731168571838 15.421863400021692
O -12.617818999685653 12.714779211755335 6.118415762063242
H -12.458295491474733 12.48600565531043 5.190416695738477
H -11.815238830026793 12.41892479492347 6.573714762294338
O -0.019196645204026197 14.079917202163728 -11.816171456341998
H 0.5263918850328348 14.684717247497861 -11.291273925639281
H 0.5703407617501428 13.33339848435724 -12.000880400538847
O -19.04312615686785 5.552704207073174 2.1118618118487773
H -19.117228306853548 5.415448452995711 1.1554952052380467
H -19.091490918738018 4.658136349622618 2.4811464480382073
O -4.201284733662401 5.964184031579162 11.4295010203477
H -4.318608623188751 6.092655421312184 12.382757315300154
H -3.856722465348496 5.06153087727669 11.355635801318893
O 9.538406139129442 10.255072562509719 3.654647253291245
H 8.676941392949345 10.69536525444515 3.7093116239280155
H 10.166080725267193 10.983175735558639 3.5327771272845108
O -2.609330488356399 -5.8086487810766885 -15.671684398641002
H -1.9782573531917365 -6.083652827969087 -14.989711650529872
H -2.066534297793658 -5.322698228170383 -16.310578990839616
O -1.649858831070734 -16.116825832858552 -18.144396629836415
H -1.5220446169570465 -15.93463178508754 -19.08749588894296
H -0.772675250481667 -15.975444002669978 -17.75771576874102
O -11.886031392503764 -2.9888769162228153 -1.5754059792309136
H -12.447415588881462 -2.620613201426867 -0.8766950394839688
H -11.65034347630402 -2.2199429667896045 -2.1159184507488837
O -5.237196502746742 -10.86900927916547 18.605361455711538
H -5.1721520399753524 -10.633139786138926 19.54296593363503
H -4.87864577316764 -10.095930155048459 18.144110996120695
O 8.580045917594125 -7.50981188222689 -12.60483276481094
H 9.431521158734721 -7.9690825216229015 -12.549807766734178
H 8.17634283404712 -7.861212780569741 -13.412609450088791
O -7.2429051738906995 17.626576565905502 0.8766306852238106
H -7.48837435813011 16.84124204037024 0.3648085291078983
H -6.542532824111954 17.311392286663 1.4674770155701882
O 0.8579690402556266 9.649446191987979 15.066368135592686
H 0.5257890317774296 9.900035017322864 15.941484721816895
H 1.5090342323745025 8.956392390763638 15.252788329025973
O -4.518204848462507 9.803936758595212 -10.048757491887903
H -3.659821046578683 9.358962164030842 -10.113117539710656
H -4.921475556115469 9.420931223591115 -9.255258001777603
O 6.592771102653362 10.496894722544017 -2.0158245265459205
H 7.456548746882309 10.453991792240707 -2.4528770140135987
H 6.511839595197058 9.63899941568042 -1.572622904411861
O 15.269272255570527 0.37075790083690774 -8.184043917742756
H 14.6834548260601 -0.19342579306393737 -8.71080957315149
H 14.66538790133756 0.8574492465459183 -7.60316771318228