194

C -5.0710522388059704 1.0783507462686561 0.47044029850746183
C -3.8153522388059704 0.1782507462686569 0.19534029850746193
C -4.11845223880597 -1.3219492537313435 0.5608402985074619
C -2.96945223880597 -2.3874492537313436 0.7034402985074619
C -2.52015223880597 0.7359507462686565 0.7384402985074618
C -2.20305223880597 0.7852507462686571 2.097440298507462
C -1.5755522388059702 1.205650746268656 -0.18965970149253808
C -0.9533522388059701 1.2695507462686564 2.508640298507462
H -2.91125223880597 0.4298507462686567 2.840840298507462
C -0.32655223880597006 1.6562507462686575 0.21554029850746192
H -1.7850522388059702 1.178550746268657 -1.2573597014925382
C 0.004447761194029898 1.6956507462686563 1.569740298507462
H -0.7158522388059702 1.2676507462686573 3.5705402985074617
H 0.3943477611940298 1.9193507462686572 -0.5551597014925382
C -1.76045223880597 -2.1592492537313435 -0.1734597014925381
C -0.5287522388059701 -1.936549253731343 0.464840298507462
C -1.8068522388059702 -2.121249253731343 -1.5681597014925381
C 0.6114477611940299 -1.614449253731343 -0.2582597014925381
H -0.4544522388059702 -1.954049253731343 1.5506402985074619
C -0.6479522388059701 -1.8270492537313432 -2.2998597014925384
H -2.74345223880597 -2.290549253731343 -2.092259701492538
C 0.5698477611940298 -1.5506492537313434 -1.6506597014925382
H 1.5072477611940298 -1.351949253731343 0.2991402985074618
H -0.7173522388059701 -1.7640492537313435 -3.3840597014925375
C 1.7791477611940298 -1.082849253731343 -2.4255597014925376
H 1.4739477611940297 -0.9102492537313429 -3.464259701492538
H 2.1252477611940295 -0.1337492537313434 -2.0010597014925384
C 1.3965477611940298 2.0964507462686566 1.997440298507462
H 1.51704776119403 1.8448507462686567 3.057640298507462
H 2.1256477611940294 1.5207507462686571 1.4165402985074618
C 3.94864776119403 -1.4275492537313434 -3.522959701492538
H 4.81734776119403 -2.087049253731343 -3.615159701492538
H 3.4305477611940303 -1.3641492537313429 -4.484459701492538
H 4.26984776119403 -0.441449253731343 -3.176459701492538
C 2.60904776119403 -3.4296492537313434 -2.8992597014925376
H 1.9825477611940296 -3.869549253731343 -2.119359701492538
H 2.06294776119403 -3.373349253731343 -3.845759701492538
H 3.5215477611940305 -4.019849253731343 -3.0234597014925377
C 3.7281477611940304 -2.060049253731343 -1.156659701492538
H 3.9048477611940298 -1.032549253731343 -0.8295597014925382
H 3.12924776119403 -2.623249253731343 -0.4404597014925382
H 4.68244776119403 -2.5769492537313434 -1.3005597014925383
C 3.1110477611940297 3.755250746268656 2.588740298507462
H 3.40124776119403 4.809350746268656 2.534540298507462
H 2.9823477611940303 3.461750746268656 3.634840298507462
H 3.86514776119403 3.1392507462686563 2.091540298507462
C 1.99744776119403 3.9574507462686572 0.40494029850746194
H 2.67914776119403 3.230350746268657 -0.04295970149253803
H 1.03214776119403 3.981150746268657 -0.10175970149253821
H 2.4399477611940297 4.958250746268657 0.368240298507462
C 0.7418477611940297 4.4992507462686575 2.475440298507462
H -0.18475223880597014 4.424250746268656 1.901240298507462
H 0.57844776119403 4.189650746268656 3.511940298507462
H 1.1210477611940297 5.524350746268658 2.4432402985074617
N 3.00114776119403 -2.025349253731343 -2.490159701492538
N 1.7831477611940298 3.586450746268657 1.862540298507462
C -3.55075223880597 -3.8435492537313434 0.6444402985074619
H -2.62515223880597 -2.2736492537313433 1.7424402985074618
H -4.67195223880597 -1.3478492537313436 1.5102402985074619
H -4.83415223880597 -1.6757492537313432 -0.1945597014925382
H -3.7169522388059697 0.17335074626865676 -0.900559701492538
H -3.9132522388059705 -4.043149253731343 -0.34225970149253815
H -4.35435223880597 -3.9354492537313432 1.3449402985074619
H -2.78115223880597 -4.545049253731343 0.8904402985074619
H -5.24235223880597 1.138950746268657 1.5249402985074618
H -5.92805223880597 0.6501507462686567 -0.006059701492538094
H -4.89895223880597 2.059650746268657 0.08004029850746197
C 0.8068190627953076 2.5869928644679434 -3.3804789744625383
O -0.16926274317439766 2.7709577175507754 -2.6697070423456815
O 0.7791098183331624 2.4596978338257243 -4.609974658491211
O 1.9733706905654795 2.4996489633523256 -2.9802581265739407
O 1.1323395852228653 3.166033650553742 -8.223995549849423
H 1.3555978507053559 3.4468398155325763 -7.323845006049314
H 1.2950895959883022 2.2108151591977925 -8.218337629072877
O -5.977934198121567 3.122063316525483 -2.7551046296851114
H -6.606944367165266 2.867880533322745 -3.4469895022346755
H -6.314066864341976 3.9723080318770294 -2.434073947325423
O 4.991719256192001 1.4355784632090414 -5.612844628763874
H 4.82395312342854 0.9994801559491582 -4.763939364318743
H 4.106522375122411 1.6394773140426449 -5.9502074670751
O -4.520277079887956 6.063517784561126 2.6310020931187044
H -4.652476350569691 5.2122079269817805 3.074580988152555
H -3.5650464910185784 6.098797375583393 2.4720938905438734
O 8.081013388253387 -1.6994412948895783 3.4899226429924344
H 7.215364990966957 -1.9803325459117131 3.8226692647253273
H 7.957354353347389 -1.6477647932541524 2.5302352321315644
O 10.716833402887737 -1.759687100228258 -1.8630909641465054
H 9.892312742680318 -1.5916285566336945 -2.343600447628359
H 10.654456839074092 -1.1871568808519903 -1.0838090790190735
O -0.45231088199054614 5.719044888106584 6.602354018365924
H -0.9100535119126145 5.6366289333818616 7.452440279905799
H -1.0507724165600385 5.291010469265913 5.971804835329059
O -4.867691432210084 -1.0865200799011323 -3.746928393596274
H -4.109393381161799 -0.9165745087135825 -3.1680761451683095
H -5.557031374298463 -1.4016111962593245 -3.143198340564508
O -7.480175583509633 2.9394782950802254 4.129839231244929
H -7.3345031793316515 2.8987243166758665 3.1727154039345713
H -6.9507560055880715 3.6993109302501384 4.415025523594511
O -6.036989756495921 -3.682763445692628 -5.8157905366634886
H -6.226590472504442 -4.075830733872172 -6.680959325023446
H -6.175149878470574 -4.4115261777636094 -5.192269402025387
O -1.316796988252709 8.772356579456705 2.482747916704874
H -2.209217781791552 9.145945800522071 2.4281257777566845
H -1.2762795207532887 8.153226842637592 1.7384370622134657
O 4.398917000915535 2.518876199984745 5.474050607930518
H 4.280914524777222 2.2591105029492593 6.400098422661968
H 5.3594475144142 2.598173261039496 5.373775720515631
O -0.2529567049444368 -4.338510809509531 -8.017310958867094
H -0.5058803356507071 -4.248926240550494 -7.086197862119559
H -0.8734086708650737 -4.996004218032521 -8.366171561449322
O 6.015101119028536 9.371445532511382 2.39124067707091
H 5.109923928752473 9.437032841529978 2.7308285390442615
H 5.993968334905543 9.882616569813102 1.5683071922988452
O -6.327160318216116 -0.09552942468742476 8.764712654726413
H -7.288622988953119 -0.1060731909321122 8.644522311218092
H -6.197246095708506 -0.4769643867922735 9.645957007204384
O -1.3354719957219565 -8.49401869759145 1.720195453115826
H -1.405941554196764 -8.389574171486315 0.7594182993517278
H -0.5593073817514029 -7.964396199517409 1.956902964305799
O 0.345168106548579 -7.82900751512792 6.8713806319838895
H 0.38684952152373664 -7.748479950408067 5.906629198781556
H 0.9563638079776995 -7.147794699720662 7.189737128665649
O -3.4211719551757573 9.144436671282715 -4.471586433768584
H -2.5045740659875624 9.457636954384125 -4.444730352503001
H -3.412277286118895 8.452415112861175 -5.149811316710954
O -8.264960033820593 4.650359015375226 -6.55538924479529
H -8.23823727726523 4.0345072013751615 -5.807739731737927
H -8.198624720665732 4.0767861882487 -7.333576743095494
O -7.5351655466539125 -6.315235480665735 -0.5644517914799492
H -6.804442215249713 -6.309072652804686 -1.2008265155178437
H -8.04676614968141 -5.523195399068053 -0.7878332509268673
C 4.715706773252249 -15.548567287824179 0.06453622786225244
O 4.270587108604241 -15.396705792137949 -1.0362020823512088
O 5.160826437900257 -15.70042878351041 1.165274538075714
O -7.8296407598880915 3.579519041764781 11.004477292632005
H -7.760187948141187 4.1586956446944034 11.778233149772586
H -6.908902343067913 3.420536841272561 10.747714031984923
O -6.039205098673315 -14.156817375807547 -8.41321668849096
H -6.408544838959305 -13.9232260934868 -9.27808120156178
H -6.587931725523056 -13.665135534931496 -7.783843984412653
O 17.566955167614662 4.765842167472233 5.892960720815232
H 17.369925012694555 4.428652329734981 5.006140847177477
H 17.27718459907529 4.054403028567214 6.483595390930741
O -18.46556595503718 7.877566665091919 -7.846441797433758
H -17.749968919441148 8.10478491519757 -7.2338570225943135
H -18.61432503726214 6.932528895896304 -7.692375920130036
O -4.3497680404466355 15.004077948987856 -1.76592781420511
H -4.122208075835927 15.881112396131623 -2.109430940725958
H -5.1047368556448385 15.170206395539253 -1.1816458860020886
O -14.002558109354823 5.567912636317778 -11.712363556734342
H -13.968360761849425 6.038365082665002 -12.558810480084832
H -13.591257844191096 6.182506736185179 -11.086210118203155
O 8.969570327842646 11.468603204683442 10.775642911247594
H 8.618942469348596 11.382317225819401 9.876430927564464
H 9.857331825178141 11.084436726414825 10.71856765283095
O 1.2557598908330891 -6.351357582473122 -16.191191909166143
H 0.7952478901226269 -6.513415076463178 -15.354153425735834
H 1.0008205767385587 -5.446796718064304 -16.427279886430938
O 4.250916774619605 8.085173294361685 -1.8089806131380723
H 4.182863065225646 9.039716913256711 -1.9612387136270413
H 5.020128181341592 7.9953096233354115 -1.2265715844490743
O 2.2480370241579193 6.0175115964768615 5.278486703048466
H 1.4304688313565463 5.536028042536938 5.081704604510824
H 1.9963674393195838 6.625017539739382 5.990217616574087
O -6.153453158585124 4.131234430456972 20.802487538489636
H -5.3836434195166625 4.58592348458315 20.4288323677865
H -5.770005177489323 3.4920743877046085 21.421683815805928
O -8.578355329994388 -7.711746403807868 10.303791472997911
H -8.77602854027263 -8.084559753109863 9.431494009158584
H -8.902412224889918 -8.382229564736262 10.923792605321182
O 17.9424134541431 2.5193390569227336 14.926853485362978
H 17.840005749006615 2.434193315610365 15.88666087310546
H 18.887744879148784 2.367251787708815 14.777924295008058
O 4.482707901812545 6.311138670229256 18.87401803279159
H 4.296651088997475 7.235404454404121 18.650225764138895
H 4.411678354063154 5.846306453377196 18.026759065401503
O 13.3659228347965 -9.267601102097853 -6.454237476519174
H 13.482161822235355 -10.158003098759549 -6.090039537150963
H 13.812693153206956 -8.692934588419233 -5.814615224761248
O -11.602808635916134 -8.911602049807133 12.602996951022973
H -11.813635459523061 -8.946190580201373 13.548154631472633
H -11.431594786375854 -9.835800825767919 12.367403265754914
O -1.6943795793499223 -2.5501405718731878 4.905134628265847
H -1.5673933697888052 -2.9769505376901435 4.044509789813788
H -1.4133546446905974 -1.6348235268510365 4.75619961729919
O -18.97975322406286 9.739145463517128 6.544764677010188
H -19.236989498672518 8.962704712077857 7.064318923869326
H -18.278018180862105 9.409728851206207 5.963374473293588
O -2.7717300432377576 -4.292135201089704 11.211679897899227
H -2.0697364370784817 -4.497175092701548 10.575966930704679
H -3.5887423067265 -4.493985011174305 10.731357548036335
O 1.7815411415346754 3.638126441660622 15.15052161826407
H 1.6050169413513844 3.533852287363938 16.097587331082014
H 2.6433999626605518 4.079997589468523 15.120335437941902