194

C -5.0710522388059704 1.0783507462686561 0.47044029850746183
C -3.8153522388059704 0.1782507462686569 0.19534029850746193
C -4.11845223880597 -1.3219492537313435 0.5608402985074619
C -2.96945223880597 -2.3874492537313436 0.7034402985074619
C -2.52015223880597 0.7359507462686565 0.7384402985074618
C -2.20305223880597 0.7852507462686571 2.097440298507462
C -1.5755522388059702 1.205650746268656 -0.18965970149253808
C -0.9533522388059701 1.2695507462686564 2.508640298507462
H -2.91125223880597 0.4298507462686567 2.840840298507462
C -0.32655223880597006 1.6562507462686575 0.21554029850746192
H -1.7850522388059702 1.178550746268657 -1.2573597014925382
C 0.004447761194029898 1.6956507462686563 1.569740298507462
H -0.7158522388059702 1.2676507462686573 3.5705402985074617
H 0.3943477611940298 1.9193507462686572 -0.5551597014925382
C -1.76045223880597 -2.1592492537313435 -0.1734597014925381
C -0.5287522388059701 -1.936549253731343 0.464840298507462
C -1.8068522388059702 -2.121249253731343 -1.5681597014925381
C 0.6114477611940299 -1.614449253731343 -0.2582597014925381
H -0.4544522388059702 -1.954049253731343 1.5506402985074619
C -0.6479522388059701 -1.8270492537313432 -2.2998597014925384
H -2.74345223880597 -2.290549253731343 -2.092259701492538
C 0.5698477611940298 -1.5506492537313434 -1.6506597014925382
H 1.5072477611940298 -1.351949253731343 0.2991402985074618
H -0.7173522388059701 -1.7640492537313435 -3.3840597014925375
C 1.7791477611940298 -1.082849253731343 -2.4255597014925376
H 1.4739477611940297 -0.9102492537313429 -3.464259701492538
H 2.1252477611940295 -0.1337492537313434 -2.0010597014925384
C 1.3965477611940298 2.0964507462686566 1.997440298507462
H 1.51704776119403 1.8448507462686567 3.057640298507462
H 2.1256477611940294 1.5207507462686571 1.4165402985074618
C 3.94864776119403 -1.4275492537313434 -3.522959701492538
H 4.81734776119403 -2.087049253731343 -3.615159701492538
H 3.4305477611940303 -1.3641492537313429 -4.484459701492538
H 4.26984776119403 -0.441449253731343 -3.176459701492538
C 2.60904776119403 -3.4296492537313434 -2.8992597014925376
H 1.9825477611940296 -3.869549253731343 -2.119359701492538
H 2.06294776119403 -3.373349253731343 -3.845759701492538
H 3.5215477611940305 -4.019849253731343 -3.0234597014925377
C 3.7281477611940304 -2.060049253731343 -1.156659701492538
H 3.9048477611940298 -1.032549253731343 -0.8295597014925382
H 3.12924776119403 -2.623249253731343 -0.4404597014925382
H 4.68244776119403 -2.5769492537313434 -1.3005597014925383
C 3.1110477611940297 3.755250746268656 2.588740298507462
H 3.40124776119403 4.809350746268656 2.534540298507462
H 2.9823477611940303 3.461750746268656 3.634840298507462
H 3.86514776119403 3.1392507462686563 2.091540298507462
C 1.99744776119403 3.9574507462686572 0.40494029850746194
H 2.67914776119403 3.230350746268657 -0.04295970149253803
H 1.03214776119403 3.981150746268657 -0.10175970149253821
H 2.4399477611940297 4.958250746268657 0.368240298507462
C 0.7418477611940297 4.4992507462686575 2.475440298507462
H -0.18475223880597014 4.424250746268656 1.901240298507462
H 0.57844776119403 4.189650746268656 3.511940298507462
H 1.1210477611940297 5.524350746268658 2.4432402985074617
N 3.00114776119403 -2.025349253731343 -2.490159701492538
N 1.7831477611940298 3.586450746268657 1.862540298507462
C -3.55075223880597 -3.8435492537313434 0.6444402985074619
H -2.62515223880597 -2.2736492537313433 1.7424402985074618
H -4.67195223880597 -1.3478492537313436 1.5102402985074619
H -4.83415223880597 -1.6757492537313432 -0.1945597014925382
H -3.7169522388059697 0.17335074626865676 -0.900559701492538
H -3.9132522388059705 -4.043149253731343 -0.34225970149253815
H -4.35435223880597 -3.9354492537313432 1.3449402985074619
H -2.78115223880597 -4.545049253731343 0.8904402985074619
H -5.24235223880597 1.138950746268657 1.5249402985074618
H -5.92805223880597 0.6501507462686567 -0.006059701492538094
H -4.89895223880597 2.059650746268657 0.08004029850746197
C 2.8021145236686196 -2.0769327744052064 3.0707640131615657
O 2.6372120563008816 -1.650542255056836 1.9381679687283095
O 2.070359232178676 -2.897071778665464 3.6369244773123763
O 3.726279794791337 -1.7542727621192116 3.826050351262736
O -4.714343495242119 5.7504331038476915 6.6157773045716555
H -4.823564355501715 4.844140744173803 6.290704513675691
H -4.574101647819283 5.642082789799956 7.568433789343153
O 6.4069220372138975 7.7748466564555985 1.0741171386966517
H 7.1279148351571795 7.127440197639279 1.0728446227513109
H 6.036842140313777 7.714784027593165 0.1805874554602589
O -1.6826039448995092 -1.8810248489927084 6.692900788551379
H -2.4113837160961475 -2.2067621782974265 7.242211806365518
H -1.9717751249710274 -0.9972166275493297 6.420458132887592
O 1.1840454294864036 -10.514544605842083 4.6855657398704045
H 1.7724682713416111 -9.797094927698268 4.964835995025475
H 0.6757571005788046 -10.129735246235686 3.9558214862064025
O -10.565763497299775 3.2348647303441798 -3.1812350922475567
H -11.091013870484264 3.099839709710988 -3.984259155506288
H -10.342965931219013 4.177651615640455 -3.203054298508011
O -7.733768885961357 -0.9789218081519602 3.3424635219208683
H -6.8121266769215385 -0.6868472047019658 3.407543637438087
H -7.8795122419615335 -1.0833681479158113 2.390196867778375
O 1.904911738741824 -6.870725048906949 6.955669154479004
H 2.2975476583065326 -6.880606460902781 6.069832403568011
H 0.9687030770264691 -6.679585771051292 6.794606860660865
O -2.292505796365921 3.566287086108061 6.286371906200373
H -2.1316469967422647 3.297045147274333 5.369529181488717
H -2.2896184182757295 2.732005630732292 6.779249234309359
O 5.901330696759072 3.6086106578843142 2.0070334519560418
H 5.826824526923866 3.463803647033536 1.0518124737709145
H 6.336699588646427 4.471240171626302 2.0797396710713176
O 3.5094232101259575 5.877038268617986 -5.947961113250491
H 3.126910231502705 6.26369861512162 -5.145997925487824
H 4.358022028978886 6.33434742657707 -6.046502084364893
O 2.8385458184017116 5.101890382632597 -9.000024276471681
H 2.861069711164706 4.732760918629938 -9.89568239760938
H 2.078958607621791 4.665352864661273 -8.58599020912575
O 1.4905425726839465 -6.888795800171403 -1.951312399182148
H 1.9500307962614987 -7.617520303085102 -2.3949322005286713
H 0.7890032317875417 -6.641793554370908 -2.572435887744726
O 2.01900649720579 4.309992975389744 8.591226423876257
H 2.563568146589448 4.540855406383282 7.823683262304021
H 1.290182427998569 3.794357130619267 8.214534114382074
O -6.223986819318922 1.1573229545507182 -3.868475557002452
H -6.477484786499243 1.1679093840522152 -2.9332782168405718
H -6.668296262844227 0.37234768578491373 -4.222544604110903
O 0.005573118161091073 7.995018203343681 1.2901463813077862
H -0.27372569612394554 8.918428491873216 1.3811022402547157
H -0.06519602859004325 7.821645800111903 0.33941209562868413
O -10.932696290242813 -0.40223558335527 -1.924654906930508
H -11.642909928197028 0.23065371404129653 -1.74022312386501
H -10.124198220265543 0.07937587323831341 -1.69369339494023
O -5.288886317762823 9.004239243848449 1.395581828712236
H -5.264676506602507 8.860769368683876 2.3535993843258294
H -6.208678843935253 8.818022367812082 1.1541963938231472
O -2.4969511885049287 -0.8195488162334676 -11.641029134774922
H -1.6971782849355437 -1.008982246837169 -12.154298688699477
H -2.159233323701123 -0.4995915112220892 -10.79100801088316
O -6.090892544021276 -5.650991924628606 -3.7787197701884105
H -6.69245108649508 -5.400217574415419 -3.0616375558280557
H -5.84487398097777 -4.805964536250127 -4.184139952010005
O 6.171573663008755 -4.609600261573124 1.0760988649776242
H 6.800302235511512 -4.792463521926195 1.7904018588336563
H 6.340829207960968 -3.683486544468178 0.8466911759325818
C -0.08872237454775445 -0.5243411075325866 -7.121600574534218
O -0.3157072184910201 0.4395346088911323 -6.449112848840495
O 0.13826246939551112 -1.4882168239563054 -7.794088300227941
O 13.552886635733818 5.5270401679590675 -2.6770361043560236
H 13.016837594386756 6.251966464504003 -2.3219295756233933
H 13.827385378332655 5.0319219599978195 -1.8906072488599275
O -3.5716446803886965 0.2147217559952006 20.03256898971933
H -3.8017767190015057 0.8415728775623847 19.330383634493323
H -3.778260404914417 0.6925551545937383 20.849849314860272
O -0.8058767979285797 -10.27819761439974 14.922280026944689
H -0.6968036466345771 -10.79070956126807 14.10717150111268
H -1.7658296095023625 -10.242054165947529 15.049347705705145
O 17.568407062538057 3.505977239790143 12.466331525179365
H 17.615124908409307 3.541023092937963 11.499089782927566
H 18.25515341380837 4.125003193302888 12.756414723925086
O 15.439487584602901 -2.080076444243211 -5.126700361276091
H 15.774171771415933 -1.7614648285765342 -4.274972417411638
H 14.648583970995494 -2.5883832888186817 -4.892056865648208
O -11.356132925294794 1.7285522567698615 6.18619998291593
H -11.297621209559813 1.5853023171690057 7.142768428363563
H -11.839969849486376 2.5640620531584126 6.103815790089925
O 17.594844835655014 -6.9651824454710125 -12.36474208629134
H 17.17415877677 -7.579548055525889 -11.744624763567892
H 17.307024109883326 -6.091486724351371 -12.06014897899328
O -5.711727040149835 -5.889792928852897 4.734849341922094
H -5.656805484481723 -6.0410518881690605 3.779301485009847
H -6.623666403673901 -5.592618116605919 4.8727466679342175
O -4.64354430362115 9.048219921847494 15.621588609874715
H -4.646735457785317 8.762676979741922 16.547559668628065
H -3.8274966003936806 8.668700331268823 15.262432695647803
O -5.946101509968322 5.69247194474669 -18.891682600412683
H -5.054796260340448 5.75008287528493 -18.51588572766318
H -5.848358416808923 6.05922044843865 -19.783256359043648
O -11.69445292659841 -2.0806145490639025 -11.608178955479708
H -11.475466666983717 -1.4156305156747675 -10.938247160191946
H -12.466809772505203 -2.53669382208348 -11.241547609843735
O 3.853691127740942 -12.281745598742573 11.42642264912263
H 3.3053134105818325 -11.524352254068432 11.680596915457139
H 4.536562327210885 -11.895836425920145 10.85745605997526
O 9.54628992645831 1.317815659654741 -1.2607307446399614
H 10.402076402791177 0.8760081592132023 -1.3675155580704073
H 9.726564548364285 2.0267625609007065 -0.6252330686328806
O -15.77165212787489 -10.022159622962164 8.884658526498217
H -16.171484652108873 -10.39954091686294 8.08673329912509
H -16.40189053586537 -9.340491041094623 9.162308374127061
O 6.490146504516705 3.544487432816222 19.326630125429574
H 7.102957070165784 3.635964200690233 18.58160491211919
H 6.933480505139801 4.0084581710965494 20.052679753355328
O 6.725011977021571 -2.6203901339263367 13.012107218724507
H 6.597756316402931 -2.9557272931430543 12.11192815687682
H 6.317862449439363 -3.2970208852965732 13.573678258566959
O 15.74981726519657 -3.035620130996046 14.214981932800757
H 15.664567644727798 -3.148023383618151 15.173660903003976
H 14.877420857066951 -3.281134668277211 13.87204015440951
O 16.618763730678314 0.22744991207517806 -7.596807449055984
H 16.679879067570404 -0.09836836929380688 -6.686272046107629
H 16.81051222635732 1.1741781967129477 -7.519995901931464
O -2.8531258409796694 1.4682100552719772 15.60638983405334
H -2.670601775145747 2.063570293049384 16.348817278026882
H -2.204804503942837 1.7267137703826028 14.934216331513426
O -4.299634196905458 11.543435097082849 7.751608225537125
H -4.623971435858833 10.958536785412768 8.45279769874219
H -4.072939520400276 10.939079154383775 7.028887420199045