194

C -5.0710522388059704 1.0783507462686561 0.47044029850746183
C -3.8153522388059704 0.1782507462686569 0.19534029850746193
C -4.11845223880597 -1.3219492537313435 0.5608402985074619
C -2.96945223880597 -2.3874492537313436 0.7034402985074619
C -2.52015223880597 0.7359507462686565 0.7384402985074618
C -2.20305223880597 0.7852507462686571 2.097440298507462
C -1.5755522388059702 1.205650746268656 -0.18965970149253808
C -0.9533522388059701 1.2695507462686564 2.508640298507462
H -2.91125223880597 0.4298507462686567 2.840840298507462
C -0.32655223880597006 1.6562507462686575 0.21554029850746192
H -1.7850522388059702 1.178550746268657 -1.2573597014925382
C 0.004447761194029898 1.6956507462686563 1.569740298507462
H -0.7158522388059702 1.2676507462686573 3.5705402985074617
H 0.3943477611940298 1.9193507462686572 -0.5551597014925382
C -1.76045223880597 -2.1592492537313435 -0.1734597014925381
C -0.5287522388059701 -1.936549253731343 0.464840298507462
C -1.8068522388059702 -2.121249253731343 -1.5681597014925381
C 0.6114477611940299 -1.614449253731343 -0.2582597014925381
H -0.4544522388059702 -1.954049253731343 1.5506402985074619
C -0.6479522388059701 -1.8270492537313432 -2.2998597014925384
H -2.74345223880597 -2.290549253731343 -2.092259701492538
C 0.5698477611940298 -1.5506492537313434 -1.6506597014925382
H 1.5072477611940298 -1.351949253731343 0.2991402985074618
H -0.7173522388059701 -1.7640492537313435 -3.3840597014925375
C 1.7791477611940298 -1.082849253731343 -2.4255597014925376
H 1.4739477611940297 -0.9102492537313429 -3.464259701492538
H 2.1252477611940295 -0.1337492537313434 -2.0010597014925384
C 1.3965477611940298 2.0964507462686566 1.997440298507462
H 1.51704776119403 1.8448507462686567 3.057640298507462
H 2.1256477611940294 1.5207507462686571 1.4165402985074618
C 3.94864776119403 -1.4275492537313434 -3.522959701492538
H 4.81734776119403 -2.087049253731343 -3.615159701492538
H 3.4305477611940303 -1.3641492537313429 -4.484459701492538
H 4.26984776119403 -0.441449253731343 -3.176459701492538
C 2.60904776119403 -3.4296492537313434 -2.8992597014925376
H 1.9825477611940296 -3.869549253731343 -2.119359701492538
H 2.06294776119403 -3.373349253731343 -3.845759701492538
H 3.5215477611940305 -4.019849253731343 -3.0234597014925377
C 3.7281477611940304 -2.060049253731343 -1.156659701492538
H 3.9048477611940298 -1.032549253731343 -0.8295597014925382
H 3.12924776119403 -2.623249253731343 -0.4404597014925382
H 4.68244776119403 -2.5769492537313434 -1.3005597014925383
C 3.1110477611940297 3.755250746268656 2.588740298507462
H 3.40124776119403 4.809350746268656 2.534540298507462
H 2.9823477611940303 3.461750746268656 3.634840298507462
H 3.86514776119403 3.1392507462686563 2.091540298507462
C 1.99744776119403 3.9574507462686572 0.40494029850746194
H 2.67914776119403 3.230350746268657 -0.04295970149253803
H 1.03214776119403 3.981150746268657 -0.10175970149253821
H 2.4399477611940297 4.958250746268657 0.368240298507462
C 0.7418477611940297 4.4992507462686575 2.475440298507462
H -0.18475223880597014 4.424250746268656 1.901240298507462
H 0.57844776119403 4.189650746268656 3.511940298507462
H 1.1210477611940297 5.524350746268658 2.4432402985074617
N 3.00114776119403 -2.025349253731343 -2.490159701492538
N 1.7831477611940298 3.586450746268657 1.862540298507462
C -3.55075223880597 -3.8435492537313434 0.6444402985074619
H -2.62515223880597 -2.2736492537313433 1.7424402985074618
H -4.67195223880597 -1.3478492537313436 1.5102402985074619
H -4.83415223880597 -1.6757492537313432 -0.1945597014925382
H -3.7169522388059697 0.17335074626865676 -0.900559701492538
H -3.9132522388059705 -4.043149253731343 -0.34225970149253815
H -4.35435223880597 -3.9354492537313432 1.3449402985074619
H -2.78115223880597 -4.545049253731343 0.8904402985074619
H -5.24235223880597 1.138950746268657 1.5249402985074618
H -5.92805223880597 0.6501507462686567 -0.006059701492538094
H -4.89895223880597 2.059650746268657 0.08004029850746197
C 1.9500734977190533 -1.1336117476860497 2.9863916248012763
O 2.7074912792011863 -0.18031655843942665 2.8898406794204647
O 0.717043264942723 -1.0612585725837655 3.0414636432150552
O 2.29940496864612 -2.3182216815923917 3.043969505192476
O 1.5559324110802097 -6.889576688357812 3.627312899475017
H 1.915058504084402 -7.39565500685284 4.3715444103456536
H 1.2863829710515495 -7.568693981872842 2.9908345060247328
O -2.3898982603683288 -6.608473328849973 4.385447683374119
H -3.0832411887840605 -6.651739497419196 5.061000034545542
H -1.800900211149942 -7.345319374096754 4.607035471668313
O 6.313321135096407 -2.7850434037865024 -10.490758518849566
H 6.780673010013581 -2.1197748357891957 -11.01798457505906
H 5.461373441613164 -2.8847202113833754 -10.94154849865821
O 4.837309484012919 6.325799200665344 -2.179564079975201
H 5.4925513780185815 6.74731594981784 -1.603413884779726
H 3.9979808744189143 6.731869513289351 -1.9157529152712842
O 3.8355140628983553 -5.048421319022455 6.605579879333806
H 3.9438381248476553 -5.2420632180933415 7.548838099243406
H 3.379514495320334 -5.8292307387421545 6.257207967800107
O 6.196653684958441 -5.112659102445511 -3.0334202084198334
H 6.6600739512945175 -5.297822771389162 -3.8640365033191864
H 5.91717059875676 -4.189093873993233 -3.1221806591908505
O 0.4215718066286933 -1.2487387925539497 6.405061549780077
H 0.33076318142112404 -0.6237622688367908 7.1399938563841125
H 0.3307444148386751 -2.117680366001045 6.8241711668683855
O 0.987454040274987 0.6638973614489676 -6.568604592690658
H 0.34628233570166334 1.241686522528773 -6.128120895497182
H 1.828449773324109 1.1369947487446221 -6.479908575715859
O 2.1292723435883523 -6.201241882618412 -3.610756598932344
H 2.037131797697084 -6.1232349959689065 -4.572209875143992
H 3.087235373654437 -6.18758864552592 -3.465558918360295
O -8.761607118270513 0.1899761020282198 4.30290769159345
H -8.018062818404612 -0.17432651652353748 4.8062890908855405
H -8.608057626569327 -0.12323142381537067 3.39886922800175
O -9.29403430004839 4.9069705335401474 -2.7907331347044333
H -8.968900433397875 4.89259119410076 -1.8780181954960429
H -9.931657521336849 5.63656039039614 -2.8005927871616
O 0.9980895505684946 3.156414269007475 9.188783254314092
H 1.149942044297101 4.082753715187724 9.42920664647649
H 1.4634251929359174 3.0542957943117686 8.344984403065574
O -3.0821330573037384 -6.596356587354018 0.0006373313298069228
H -2.799633250539162 -6.236274206696766 -0.8534714996854125
H -2.2516015955654076 -6.755747707071848 0.4736847986286883
O -7.792778551221474 1.5201442336703876 1.1328969254845502
H -7.771555666461579 1.4772321104605486 0.1650769547544082
H -7.623226188610737 0.6076531758003156 1.4114180376830219
O 6.796108142078675 3.584449685867724 0.2399292686726993
H 6.815490839421097 4.289869593919031 -0.4241297808617672
H 6.590403736276649 2.7873711500046965 -0.2712590032977036
O -5.572884171525556 6.349801290421032 -1.7506466613526213
H -5.3970508353950875 7.133552398098242 -1.2086280306580859
H -6.156017723340114 6.676441092695599 -2.452233181047924
O 5.115561952960862 -6.803751909679356 1.9635131797193361
H 4.663406864671793 -6.8782397929077765 1.1097130343185202
H 4.602267980298997 -6.136037033304498 2.442729295680296
O 2.62156524662396 2.779128490152714 -4.407969900406845
H 2.7214100917689112 3.739624983017472 -4.3276900711065664
H 3.1440054819533363 2.4271485834342 -3.6716762836509953
O 11.853937869673336 2.1402258784338497 -5.197572028154189
H 12.321203645490248 2.979392148414848 -5.069392376975069
H 11.485385456076195 2.2116244933111147 -6.090899124197586
O -4.178341010646534 -9.549756986352655 -1.040505990853695
H -3.2668909568017854 -9.223910137660253 -0.9952292038250476
H -4.368496328391391 -9.839632848767152 -0.1356441871384524
C -2.9566694129874573 -11.836424073333848 18.225179591392436
O -3.656649380588121 -11.299582603138349 17.416076669548676
O -2.2566894453867956 -12.373265543529346 19.034282513236196
O -10.10434654608225 -3.3700571932512613 5.656992741218806
H -11.047857478650817 -3.487496842787439 5.470010373760239
H -10.003129203829197 -3.69596475984469 6.563911288809702
O -12.638854241820523 11.003024987758309 12.715770892455797
H -13.086985148527212 10.863455108570225 13.563512773087908
H -12.471921431599224 11.957280226846105 12.693582610748718
O -11.690562697851469 -11.91162722094459 4.392895655506379
H -12.042241805220643 -11.500322139095305 3.589081440662566
H -12.439983310481564 -12.414555155206166 4.745591250325074
O -15.08066757369949 11.412581263858485 3.558419955172904
H -15.751958703777188 11.471119613197294 4.25477391490581
H -15.413062619510416 10.71754254564588 2.9707153882298405
O 11.957814643952926 7.997882220401742 -7.983769394596206
H 11.265704694380194 8.006986352369646 -8.661905287602574
H 11.468993646449213 8.062041977658344 -7.14956348341585
O 7.876556051181678 1.8842717419474635 -10.954550177516921
H 7.2196028623745345 1.3841894338283502 -11.461795236361645
H 8.554861831964534 2.1101756559306875 -11.608637812091697
O -6.002256830310071 12.719682731293432 0.9280385991664688
H -6.9531090721532705 12.902014471565018 0.9680699315362338
H -5.598211446020128 13.597795124895356 0.860009958604623
O -14.156635511208876 -2.920461137103884 2.1423171021326555
H -14.535525681583099 -2.8061533752415104 3.026818843946547
H -14.7417686533127 -2.403503891827697 1.5684387553829615
O -22.80127751806637 11.240266046025361 3.5044915335420956
H -22.464792333622594 10.428399886670196 3.9126807260052643
H -23.534206208129007 10.936222275944122 2.9483127264504803
O 10.962560143049396 -7.507601035395661 -12.541466685360021
H 10.022655597004833 -7.637678507367442 -12.344930041168166
H 11.402745919734041 -8.229522362833453 -12.068150698629175
O -10.78682796952966 -17.320950934524404 1.3692915064180413
H -11.732357581767747 -17.495387904493633 1.2488222041504282
H -10.476874753724495 -18.068714821928268 1.9019641235166653
O 4.810014062586093 -0.9653499981312192 7.824412368700702
H 4.840576430864144 -0.5422006385028397 6.953218981448863
H 4.18574689591297 -0.42094042113546193 8.327274836368758
O 10.7211445747808 11.295045044162094 1.807195232113937
H 10.285366818186445 11.544775185730494 2.6358688470853684
H 11.25511588945681 10.522826860277533 2.0470194508267348
O -2.8346969117846212 8.517675177159619 -4.77856685049978
H -2.666167697713025 8.554905637144069 -3.8250579864855236
H -3.517561531323844 9.19005028018542 -4.921987827042954
O -11.595926843734219 9.113441083883068 7.258499642625935
H -11.21633920687571 8.222056688421597 7.276232165626351
H -12.490082064592873 8.994152007944855 7.612361906328946
O -5.734092704975573 -11.802080659634992 -11.062285377391959
H -5.5579021012820276 -11.601690307515097 -11.993826001759661
H -4.973806011759225 -11.425680939018822 -10.59404469276682
O 14.780091849170576 5.954134831422835 -9.302563167713327
H 15.053398439301303 6.106177249604935 -10.219707631668957
H 14.573173370349636 6.840446800486197 -8.970000721069917
O 8.195161052627485 4.481975272720787 -9.556080671115195
H 8.355889643186272 3.686959106336088 -9.025908083872167
H 8.060349754889298 5.179471696042535 -8.897076423969919
O -7.735258206452681 -2.2085545348979516 6.627865329742244
H -7.3012064693783945 -2.3119089228478753 5.7677000450822025
H -7.774952905937327 -3.1104810217546595 6.979880794514944
O 2.9027407009127018 19.814313740289684 -0.5996378695596505
H 3.0548333424057166 19.645499220578863 -1.5416234550324237
H 1.9376016924381396 19.80753499281568 -0.5134828511137061