194

C -5.0710522388059704 1.0783507462686561 0.47044029850746183
C -3.8153522388059704 0.1782507462686569 0.19534029850746193
C -4.11845223880597 -1.3219492537313435 0.5608402985074619
C -2.96945223880597 -2.3874492537313436 0.7034402985074619
C -2.52015223880597 0.7359507462686565 0.7384402985074618
C -2.20305223880597 0.7852507462686571 2.097440298507462
C -1.5755522388059702 1.205650746268656 -0.18965970149253808
C -0.9533522388059701 1.2695507462686564 2.508640298507462
H -2.91125223880597 0.4298507462686567 2.840840298507462
C -0.32655223880597006 1.6562507462686575 0.21554029850746192
H -1.7850522388059702 1.178550746268657 -1.2573597014925382
C 0.004447761194029898 1.6956507462686563 1.569740298507462
H -0.7158522388059702 1.2676507462686573 3.5705402985074617
H 0.3943477611940298 1.9193507462686572 -0.5551597014925382
C -1.76045223880597 -2.1592492537313435 -0.1734597014925381
C -0.5287522388059701 -1.936549253731343 0.464840298507462
C -1.8068522388059702 -2.121249253731343 -1.5681597014925381
C 0.6114477611940299 -1.614449253731343 -0.2582597014925381
H -0.4544522388059702 -1.954049253731343 1.5506402985074619
C -0.6479522388059701 -1.8270492537313432 -2.2998597014925384
H -2.74345223880597 -2.290549253731343 -2.092259701492538
C 0.5698477611940298 -1.5506492537313434 -1.6506597014925382
H 1.5072477611940298 -1.351949253731343 0.2991402985074618
H -0.7173522388059701 -1.7640492537313435 -3.3840597014925375
C 1.7791477611940298 -1.082849253731343 -2.4255597014925376
H 1.4739477611940297 -0.9102492537313429 -3.464259701492538
H 2.1252477611940295 -0.1337492537313434 -2.0010597014925384
C 1.3965477611940298 2.0964507462686566 1.997440298507462
H 1.51704776119403 1.8448507462686567 3.057640298507462
H 2.1256477611940294 1.5207507462686571 1.4165402985074618
C 3.94864776119403 -1.4275492537313434 -3.522959701492538
H 4.81734776119403 -2.087049253731343 -3.615159701492538
H 3.4305477611940303 -1.3641492537313429 -4.484459701492538
H 4.26984776119403 -0.441449253731343 -3.176459701492538
C 2.60904776119403 -3.4296492537313434 -2.8992597014925376
H 1.9825477611940296 -3.869549253731343 -2.119359701492538
H 2.06294776119403 -3.373349253731343 -3.845759701492538
H 3.5215477611940305 -4.019849253731343 -3.0234597014925377
C 3.7281477611940304 -2.060049253731343 -1.156659701492538
H 3.9048477611940298 -1.032549253731343 -0.8295597014925382
H 3.12924776119403 -2.623249253731343 -0.4404597014925382
H 4.68244776119403 -2.5769492537313434 -1.3005597014925383
C 3.1110477611940297 3.755250746268656 2.588740298507462
H 3.40124776119403 4.809350746268656 2.534540298507462
H 2.9823477611940303 3.461750746268656 3.634840298507462
H 3.86514776119403 3.1392507462686563 2.091540298507462
C 1.99744776119403 3.9574507462686572 0.40494029850746194
H 2.67914776119403 3.230350746268657 -0.04295970149253803
H 1.03214776119403 3.981150746268657 -0.10175970149253821
H 2.4399477611940297 4.958250746268657 0.368240298507462
C 0.7418477611940297 4.4992507462686575 2.475440298507462
H -0.18475223880597014 4.424250746268656 1.901240298507462
H 0.57844776119403 4.189650746268656 3.511940298507462
H 1.1210477611940297 5.524350746268658 2.4432402985074617
N 3.00114776119403 -2.025349253731343 -2.490159701492538
N 1.7831477611940298 3.586450746268657 1.862540298507462
C -3.55075223880597 -3.8435492537313434 0.6444402985074619
H -2.62515223880597 -2.2736492537313433 1.7424402985074618
H -4.67195223880597 -1.3478492537313436 1.5102402985074619
H -4.83415223880597 -1.6757492537313432 -0.1945597014925382
H -3.7169522388059697 0.17335074626865676 -0.900559701492538
H -3.9132522388059705 -4.043149253731343 -0.34225970149253815
H -4.35435223880597 -3.9354492537313432 1.3449402985074619
H -2.78115223880597 -4.545049253731343 0.8904402985074619
H -5.24235223880597 1.138950746268657 1.5249402985074618
H -5.92805223880597 0.6501507462686567 -0.006059701492538094
H -4.89895223880597 2.059650746268657 0.08004029850746197
C -2.549666701061885 4.481725621245563 -0.9074317313431994
O -2.4649140424654687 5.679577377408157 -0.6843988734073587
O -2.494591819945548 3.9597414135135547 -2.02686493991279
O -2.7036273935114115 3.606125402109619 -0.04820606492631013
O -7.424412746702121 -5.801414938495082 -1.2983623895729735
H -6.899280502991061 -6.392872386771005 -0.7385574499788996
H -7.135984532329824 -6.014004756560421 -2.198682709630759
O -6.431495016049238 9.341561499383001 -2.1966668906375983
H -5.658635882452194 9.42047629664702 -1.6175049346283963
H -6.659469733225458 8.400645363583472 -2.1558465768158563
O -1.075718181903465 -7.6321860542185735 -0.713945313189281
H -1.693266098466257 -7.792098147350291 0.015458587348129438
H -0.8671628166052563 -6.688675089443645 -0.6414631550066408
O 11.016314529342175 -6.0782724716881065 -2.4076882620404696
H 10.454422269003711 -5.686414055190929 -3.093028634477449
H 10.807019120619362 -7.023636534655951 -2.445690428248166
O -5.012663532993314 2.1981965061355693 -8.543614452251663
H -4.829097114657644 1.7469897699069303 -9.381279784076561
H -4.17178009698549 2.1529405707462286 -8.064209725888114
O -3.811791364239486 -0.33516251821645354 -8.818012105828418
H -4.0493908222043835 -0.11931812751368354 -7.903722735072671
H -2.921049275333916 0.032087748691381535 -8.921296745578314
O -1.9905406744791911 10.062769491272336 -8.248292518580662
H -1.1570346289694842 9.568804117881374 -8.26356467918414
H -1.9778499898493054 10.568875949805168 -9.07452320274519
O 3.4779977031586453 -6.131224018044557 -2.1223451260389266
H 3.657793177002265 -6.2916861965795 -1.1837862127334433
H 2.5109196387668216 -6.146642198001979 -2.181372589129973
O 9.876373638554227 2.929628304723266 -2.9846663517295386
H 9.894232359393179 3.125972786772739 -3.933400912794288
H 9.517636433755207 3.736384371162708 -2.5853992588504187
O -3.3031551565362496 2.2039757587779554 7.043691386615277
H -3.86888031914717 2.256228620271896 7.8286703899997905
H -2.724977523031339 1.4470492326350635 7.221834032929729
O -1.89784330331534 -10.779958323283486 -3.715223747543341
H -1.5619420961840964 -10.341486763259521 -2.919057667508576
H -1.8066581248585578 -10.108803877921734 -4.408187612402802
O 0.21456665190092794 7.49089874144024 8.424337482201523
H 0.12550963638943635 7.528653514929875 7.460174227370199
H 1.0915343039014598 7.866857489277196 8.593289255111848
O -0.595414099413859 0.26068268615210566 5.8769860249397805
H -0.4383476731505024 0.3254206928263647 6.830981038099023
H 0.21228988741046884 0.6217567742253727 5.481762395977463
O 3.9559494171340654 1.0529732811477452 5.918498933702986
H 3.8941967473829604 0.966835197971265 4.955309339020145
H 4.150351447415468 0.15347976372025895 6.221947787759805
O -5.061454563403613 -2.1138937505588924 6.999680640138275
H -4.751983660418963 -2.1561701377938105 7.916963488657875
H -6.020839968822104 -2.0047719023979567 7.081130074905727
O -5.140427877227625 -5.712354248750817 6.469173182031123
H -5.152279499295352 -5.690588961052131 5.500486871502395
H -5.02264416778688 -4.784557735838228 6.7227132631181545
O 0.4759020811364353 -1.5242750624317667 4.060698736243523
H -0.47991963540183474 -1.679047955377122 4.023048308581124
H 0.5878228202241863 -0.6513960040723841 3.6550907457654165
O -7.281992442659142 -1.9056166608802116 -2.1189610717224907
H -7.2115461675196935 -1.683081366326621 -3.0594304874383473
H -7.918627779775667 -2.6358423326598084 -2.09827629208708
O 7.308540016489591 3.0173837990037855 3.998974366866784
H 6.583365450963148 2.4275068164915132 3.743760041415109
H 7.4684336316863345 3.5489467796222707 3.204722030543304
O -6.497614060317727 -6.651687318758094 2.638019235451464
H -6.597906082526496 -6.784881864780897 3.59257048084956
H -7.239841721585162 -7.14218022605572 2.2539922168184034
C 1.2325322803805907 -14.054778559892593 14.830511245746159
O 1.6207252173901754 -14.158245312723029 13.702939016567647
O 0.844339343371006 -13.951311807062158 15.958083474924672
O 2.8086148141398546 -16.810454019567675 9.9268637191431
H 3.6184957458611207 -17.34201288729671 9.904382538726525
H 2.570697277147654 -16.78598293203168 10.86588361018182
O -7.3913616192483715 1.4672474911784192 8.45882555065677
H -7.402085159983523 1.4914011929753115 9.427468395705251
H -6.980369543493042 0.6148143629473027 8.250486356407496
O 9.22659781950559 15.297242112534878 2.722937368155071
H 8.966288303424509 16.131597979423802 2.304539710267667
H 10.018955238374144 15.527406592711682 3.2310278887603143
O -9.868083314319293 16.380542159597752 12.724055239686951
H -10.17203813414718 17.246828453333805 12.414011885156578
H -10.139334006559926 16.35638497110096 13.654002247049686
O 1.608489043066421 -4.026469117071231 -7.536149387955674
H 1.7242791010596754 -4.00659604992564 -8.49800440851342
H 1.0960426081911823 -3.2264578590837902 -7.345512081068983
O 16.849594907954465 10.444210143394042 0.5294375019184381
H 16.44363013451555 10.19578477292663 -0.31462694759641985
H 16.489913282874824 11.32530677958459 0.7118101713998348
O -9.909730280980575 0.02072905323391172 -15.070473589590554
H -9.776293918122757 -0.00516216170741135 -14.111050982521
H -9.892204436816085 0.9657928109896234 -15.283802637924287
O -9.352039397736867 -21.19029540262426 1.7248279148975154
H -9.536650736692144 -21.826192265517257 1.0173526925808725
H -8.385307295503969 -21.124694434764013 1.7341820491794016
O -5.71714633018569 5.711488640734596 -1.1264783601923947
H -6.253515282845294 5.649003096701494 -1.9310722082360694
H -6.1482678575455445 5.100934914964579 -0.5097772000708533
O 13.902548752910073 5.23961105609928 5.804472899159055
H 13.614803178452398 5.632822981980037 4.966884561952064
H 13.790221601751387 5.954145952550255 6.449286389376474
O 18.825633568001145 2.3128007384461498 5.758179543707302
H 18.68409680810675 1.4567210673309408 5.326830150289536
H 19.762081435505394 2.2976517857917282 6.006771267182198
O 6.916007406083545 -3.796432269773402 14.873091868538918
H 7.457467899257718 -3.7130116864280573 14.073824142738669
H 7.272810086056476 -4.58054865609181 15.316730555502865
O 5.395847156851381 18.136800036066127 4.713197364312432
H 5.225320010982976 18.517789555646637 5.587688550884253
H 4.511424885568796 17.98442270878099 4.347765646355722
O 11.529466939773746 -0.03593815259312072 9.310645091354495
H 12.240047281909687 0.4703105729956759 9.732255292974056
H 11.501149688490159 0.30943028243033877 8.405724806650262
O 7.47381682535132 0.7293809362470316 -20.913767642255326
H 7.558966331698632 0.09799972954424513 -20.183648001174948
H 7.925461890925017 1.5233865772913358 -20.590450891942645
O 8.050363098535897 4.265490503530063 6.981137173078427
H 7.860087625808845 4.612696818602599 7.865563753497769
H 7.195337719926306 3.9298753307696543 6.672501462172308
O -1.3573652027387952 1.3750941097980878 17.88104510495878
H -2.130153635232669 0.852723405750587 17.618567976323575
H -1.1656462624706911 1.0731355531149473 18.78161538111068
O -12.630357190960574 4.4498858104024475 1.8366214416079052
H -12.695674274692903 3.601358706033212 1.3732611189393942
H -13.117049079057455 4.304060230713758 2.661744372248637
O -11.814805723000791 -5.7653946746126765 18.618244496291087
H -11.651328028277494 -6.593472469215942 18.14229327367164
H -12.129780632648117 -6.053652956959401 19.488106504457424
O -5.968601699935268 -6.423180380017043 13.942262335668666
H -6.045875198525125 -6.342133072277194 12.979751298213092
H -6.211030788164471 -7.344415352113763 14.119790383216971