194

C -5.0710522388059704 1.0783507462686561 0.47044029850746183
C -3.8153522388059704 0.1782507462686569 0.19534029850746193
C -4.11845223880597 -1.3219492537313435 0.5608402985074619
C -2.96945223880597 -2.3874492537313436 0.7034402985074619
C -2.52015223880597 0.7359507462686565 0.7384402985074618
C -2.20305223880597 0.7852507462686571 2.097440298507462
C -1.5755522388059702 1.205650746268656 -0.18965970149253808
C -0.9533522388059701 1.2695507462686564 2.508640298507462
H -2.91125223880597 0.4298507462686567 2.840840298507462
C -0.32655223880597006 1.6562507462686575 0.21554029850746192
H -1.7850522388059702 1.178550746268657 -1.2573597014925382
C 0.004447761194029898 1.6956507462686563 1.569740298507462
H -0.7158522388059702 1.2676507462686573 3.5705402985074617
H 0.3943477611940298 1.9193507462686572 -0.5551597014925382
C -1.76045223880597 -2.1592492537313435 -0.1734597014925381
C -0.5287522388059701 -1.936549253731343 0.464840298507462
C -1.8068522388059702 -2.121249253731343 -1.5681597014925381
C 0.6114477611940299 -1.614449253731343 -0.2582597014925381
H -0.4544522388059702 -1.954049253731343 1.5506402985074619
C -0.6479522388059701 -1.8270492537313432 -2.2998597014925384
H -2.74345223880597 -2.290549253731343 -2.092259701492538
C 0.5698477611940298 -1.5506492537313434 -1.6506597014925382
H 1.5072477611940298 -1.351949253731343 0.2991402985074618
H -0.7173522388059701 -1.7640492537313435 -3.3840597014925375
C 1.7791477611940298 -1.082849253731343 -2.4255597014925376
H 1.4739477611940297 -0.9102492537313429 -3.464259701492538
H 2.1252477611940295 -0.1337492537313434 -2.0010597014925384
C 1.3965477611940298 2.0964507462686566 1.997440298507462
H 1.51704776119403 1.8448507462686567 3.057640298507462
H 2.1256477611940294 1.5207507462686571 1.4165402985074618
C 3.94864776119403 -1.4275492537313434 -3.522959701492538
H 4.81734776119403 -2.087049253731343 -3.615159701492538
H 3.4305477611940303 -1.3641492537313429 -4.484459701492538
H 4.26984776119403 -0.441449253731343 -3.176459701492538
C 2.60904776119403 -3.4296492537313434 -2.8992597014925376
H 1.9825477611940296 -3.869549253731343 -2.119359701492538
H 2.06294776119403 -3.373349253731343 -3.845759701492538
H 3.5215477611940305 -4.019849253731343 -3.0234597014925377
C 3.7281477611940304 -2.060049253731343 -1.156659701492538
H 3.9048477611940298 -1.032549253731343 -0.8295597014925382
H 3.12924776119403 -2.623249253731343 -0.4404597014925382
H 4.68244776119403 -2.5769492537313434 -1.3005597014925383
C 3.1110477611940297 3.755250746268656 2.588740298507462
H 3.40124776119403 4.809350746268656 2.534540298507462
H 2.9823477611940303 3.461750746268656 3.634840298507462
H 3.86514776119403 3.1392507462686563 2.091540298507462
C 1.99744776119403 3.9574507462686572 0.40494029850746194
H 2.67914776119403 3.230350746268657 -0.04295970149253803
H 1.03214776119403 3.981150746268657 -0.10175970149253821
H 2.4399477611940297 4.958250746268657 0.368240298507462
C 0.7418477611940297 4.4992507462686575 2.475440298507462
H -0.18475223880597014 4.424250746268656 1.901240298507462
H 0.57844776119403 4.189650746268656 3.511940298507462
H 1.1210477611940297 5.524350746268658 2.4432402985074617
N 3.00114776119403 -2.025349253731343 -2.490159701492538
N 1.7831477611940298 3.586450746268657 1.862540298507462
C -3.55075223880597 -3.8435492537313434 0.6444402985074619
H -2.62515223880597 -2.2736492537313433 1.7424402985074618
H -4.67195223880597 -1.3478492537313436 1.5102402985074619
H -4.83415223880597 -1.6757492537313432 -0.1945597014925382
H -3.7169522388059697 0.17335074626865676 -0.900559701492538
H -3.9132522388059705 -4.043149253731343 -0.34225970149253815
H -4.35435223880597 -3.9354492537313432 1.3449402985074619
H -2.78115223880597 -4.545049253731343 0.8904402985074619
H -5.24235223880597 1.138950746268657 1.5249402985074618
H -5.92805223880597 0.6501507462686567 -0.006059701492538094
H -4.89895223880597 2.059650746268657 0.08004029850746197
C -2.1925532920579087 3.6957963681944253 -2.897058239664534
O -1.2451953793121076 3.293514455741558 -3.5546734361671555
O -3.2861175433087633 4.040231105215714 -3.3597821361938096
O -2.204302125722096 3.8207186191440874 -1.6670562963631417
O -3.4994388786973625 -8.308999573159083 -5.130861374481675
H -3.627480345580356 -8.622465209001872 -6.0387776893500265
H -2.9440984672180317 -8.990892347960433 -4.723944656526167
O -2.2503707657680105 -5.364541678518828 -6.89653165095728
H -1.698839378467562 -5.234954993267705 -7.682653636865364
H -2.7004635362351204 -4.513883384021329 -6.783576313430239
O 7.080041331397784 2.0542887536952135 4.679456942721549
H 6.785215476506531 2.1107364911141104 3.7581216480931863
H 6.5988192221234545 1.2910737325467927 5.032854816709181
O 0.3053255047118917 8.525482930114087 -3.730632023462447
H 1.0315462440612313 7.949134598900141 -3.44886368644461
H 0.7041442868971906 9.089170309493747 -4.410457046247227
O -0.9217612707051184 5.151949335846953 9.862921424067956
H -0.9914208016852046 6.069829061705741 10.165595697010055
H -0.23366532183687916 4.770535994008001 10.4286154863652
O -5.90790764377935 6.0896312887561646 -6.510638180922557
H -5.96405242781399 6.141338196245001 -7.476630683918128
H -6.6050017758488 6.688425411829083 -6.203282827125567
O -7.394915580376024 0.5202756475545587 -4.073947507391906
H -7.577476962266698 -0.044521110732496316 -3.308021061464751
H -7.80119863090456 1.3686676429305322 -3.841295300578385
O 1.947081904974654 -8.599099485839535 4.091894211478628
H 1.878198143421464 -8.567598617730148 3.1258558687599556
H 2.5617462821479613 -7.881323428351541 4.30624714248528
O -3.4360147138294024 3.3806371573276714 5.603320454292059
H -4.058322245425403 2.996829968186561 6.239239265605653
H -3.6206337826097474 2.9055003602725895 4.779231400956855
O 5.156580779175215 0.21752051578918696 -9.836274581518621
H 5.996509697410294 -0.16476639919953623 -10.131813891663407
H 5.040995641310652 -0.13514957767527352 -8.941162395599672
O -2.90765905677467 -5.922017030901969 6.70818588829407
H -2.4116362257375563 -5.9064286726285165 7.540463312640222
H -3.545862839217978 -6.641002657402323 6.829501778683379
O 3.4144780095717104 5.726240815792606 -4.570349095894808
H 2.9441734381186944 6.280586066296016 -5.211038029945262
H 3.034326498151766 5.981562653190346 -3.7163833284234338
O 1.888646523760763 -5.052747426740847 6.37175924685074
H 2.204131516352938 -5.092048960704389 7.287123636466826
H 2.649860469135809 -5.346445321614317 5.849019521735605
O -3.260592722350992 7.816645587114759 0.7761690200608604
H -2.776659274645582 7.728861216871929 -0.05873796843128676
H -4.133320860966204 8.141159260376492 0.5078438139482006
O 3.1528612925868265 1.864768676044752 -5.260783997770149
H 2.6846161743477817 1.8356436205566444 -6.1086434184809875
H 4.0888799347687454 1.8299942037259929 -5.509021347624814
O 0.5390755453227627 0.45265416069871733 8.686737012090035
H 1.0880541868247555 -0.111119287085371 9.252200810797138
H -0.0024752560128938686 0.9559159184809483 9.313165201930376
O -4.113275743476038 -9.679402572957997 -0.8243987538747213
H -3.239312508264782 -9.906353866106505 -0.47276153892542805
H -4.61305193480095 -10.507188802769512 -0.7615047110788824
O -1.2462666953909476 6.973785762369502 5.3754562238483095
H -0.6726200183358786 7.211884976912052 6.119234154979571
H -1.7112051338121785 7.797598185322834 5.1653912706405265
O -5.138156368788044 -3.2030685477132947 3.5526965099546315
H -5.964355465931145 -3.6276639793498755 3.8285245872297184
H -4.528666329105536 -3.9438346344445807 3.4157679133189025
O -3.3123118859277154 8.317970319091826 -2.565163651249926
H -3.3913846824383036 7.374994281749674 -2.356570643815617
H -2.760319350137883 8.670205456467768 -1.8508831792152627
C -13.682509143299933 4.218482695075486 -4.581849767818932
O -14.29153820117354 4.220307681041316 -5.612334378762644
O -13.073480085426327 4.216657709109656 -3.551365156875221
O 19.527129594520023 11.489979172121169 -8.907644277418122
H 20.40967035115783 11.59294663827011 -8.521008957396734
H 19.468623557560978 10.543882829133588 -9.10874300373153
O 13.993274461605594 13.165315229826588 -13.394702792202988
H 13.955475338496234 13.192451167725864 -12.426817352666626
H 14.403184688684899 12.309057236859491 -13.589016454912926
O -7.375469863507945 -10.423929792575592 0.3196927513287525
H -7.140765683036406 -10.173765231113418 1.2259482322819004
H -8.24235101323488 -10.01384468472169 0.18073512877941833
O -15.389201901014452 -3.306367651597046 -14.060914003681633
H -14.44762719027941 -3.3405806032195566 -14.287263059225282
H -15.788961949954526 -3.9907374684300256 -14.618401045126925
O -8.43169373704152 -19.37142923136139 3.203058185922216
H -8.240235233970289 -18.83575095650712 2.418609472269833
H -8.286003667944021 -18.76312979996929 3.9431312565270122
O 3.56191413272331 12.801106675280339 6.878860400956218
H 3.8604703872130726 11.886478770397233 6.763589782782363
H 4.189732213511762 13.173713231844987 7.516018745278993
O -13.2333633883824 -6.599963552443711 -1.0427780304293002
H -12.883596379665534 -7.023358478369491 -1.8411307928179315
H -13.849630854574874 -5.933593672957053 -1.3820825221850725
O -2.414277072983957 -8.645253136964147 10.876129024733634
H -3.2868461844635033 -8.931597001804194 10.56694025769922
H -2.5417496613378763 -8.487959103854038 11.823742485310419
O 0.7685459521680009 -10.51500851811279 -18.973241977411227
H 0.7108030343077525 -10.937769168741244 -18.103238216145108
H 0.3426993376129861 -11.148580742226862 -19.570069290796912
O 9.84943733054089 9.01798879984295 1.8878366174802035
H 10.073530798062396 8.093656901040536 1.7024720697087599
H 10.693442881833935 9.415432166892169 2.1498582648208475
O -7.90245153077297 5.71355347919467 -3.5216991061338847
H -6.9704571812488405 5.6256726013485565 -3.271437561616767
H -8.109092293237957 6.641200190455249 -3.332667048864968
O 16.40887236564644 -1.0664744572263247 -10.517249231777264
H 16.36315937410354 -1.8299124662108515 -9.922236554818241
H 15.827114541760999 -1.308355019091025 -11.253464942313304
O -3.3500182949631068 7.5997028618858335 -6.325630296745235
H -3.9031579314913447 6.898960984933438 -6.702412357473506
H -3.9603945782727457 8.105545246552396 -5.768381502266543
O -3.8330667579143274 14.76998015486663 6.479311969969949
H -4.254925817151326 14.964536659746187 7.32969427073163
H -3.2008496250382334 14.0657224478944 6.687361299140093
O 6.071794377363513 8.721381423511271 -2.8279669825913993
H 6.247212011019362 7.790294444110952 -2.6248092913912617
H 6.9541521853794555 9.114510858559335 -2.9044907712593164
O 12.226524751485735 12.342067179956036 14.460605855567387
H 12.158274738296049 12.331605105564098 15.427145993171111
H 12.552719743381791 11.456839498085367 14.239402955921355
O -2.9455981835663065 14.425802277113261 -3.3246280221877234
H -2.5911348774515357 15.103901865260486 -3.919190104793695
H -2.8921061523095863 14.832937093579472 -2.4469368532034084
O 9.945151876189733 2.2277846954393525 2.120542617727158
H 9.529845372693917 1.4231987059513038 1.7753915630081862
H 10.894795901674136 2.0606356552042238 2.0246292843983156
O 0.8319279310367407 -4.771956657655125 15.674133800362503
H 1.6209647549122024 -4.317318976270416 15.342934727094386
H 0.35743510819035706 -5.032754327743777 14.870515059513584
O 1.5108619850059632 12.809853987280247 -8.72006087727996
H 1.4858264258216214 12.78502892437934 -9.688422531791485
H 0.7551332397622681 12.265637907359249 -8.452357933202371