194

C -5.0710522388059704 1.0783507462686561 0.47044029850746183
C -3.8153522388059704 0.1782507462686569 0.19534029850746193
C -4.11845223880597 -1.3219492537313435 0.5608402985074619
C -2.96945223880597 -2.3874492537313436 0.7034402985074619
C -2.52015223880597 0.7359507462686565 0.7384402985074618
C -2.20305223880597 0.7852507462686571 2.097440298507462
C -1.5755522388059702 1.205650746268656 -0.18965970149253808
C -0.9533522388059701 1.2695507462686564 2.508640298507462
H -2.91125223880597 0.4298507462686567 2.840840298507462
C -0.32655223880597006 1.6562507462686575 0.21554029850746192
H -1.7850522388059702 1.178550746268657 -1.2573597014925382
C 0.004447761194029898 1.6956507462686563 1.569740298507462
H -0.7158522388059702 1.2676507462686573 3.5705402985074617
H 0.3943477611940298 1.9193507462686572 -0.5551597014925382
C -1.76045223880597 -2.1592492537313435 -0.1734597014925381
C -0.5287522388059701 -1.936549253731343 0.464840298507462
C -1.8068522388059702 -2.121249253731343 -1.5681597014925381
C 0.6114477611940299 -1.614449253731343 -0.2582597014925381
H -0.4544522388059702 -1.954049253731343 1.5506402985074619
C -0.6479522388059701 -1.8270492537313432 -2.2998597014925384
H -2.74345223880597 -2.290549253731343 -2.092259701492538
C 0.5698477611940298 -1.5506492537313434 -1.6506597014925382
H 1.5072477611940298 -1.351949253731343 0.2991402985074618
H -0.7173522388059701 -1.7640492537313435 -3.3840597014925375
C 1.7791477611940298 -1.082849253731343 -2.4255597014925376
H 1.4739477611940297 -0.9102492537313429 -3.464259701492538
H 2.1252477611940295 -0.1337492537313434 -2.0010597014925384
C 1.3965477611940298 2.0964507462686566 1.997440298507462
H 1.51704776119403 1.8448507462686567 3.057640298507462
H 2.1256477611940294 1.5207507462686571 1.4165402985074618
C 3.94864776119403 -1.4275492537313434 -3.522959701492538
H 4.81734776119403 -2.087049253731343 -3.615159701492538
H 3.4305477611940303 -1.3641492537313429 -4.484459701492538
H 4.26984776119403 -0.441449253731343 -3.176459701492538
C 2.60904776119403 -3.4296492537313434 -2.8992597014925376
H 1.9825477611940296 -3.869549253731343 -2.119359701492538
H 2.06294776119403 -3.373349253731343 -3.845759701492538
H 3.5215477611940305 -4.019849253731343 -3.0234597014925377
C 3.7281477611940304 -2.060049253731343 -1.156659701492538
H 3.9048477611940298 -1.032549253731343 -0.8295597014925382
H 3.12924776119403 -2.623249253731343 -0.4404597014925382
H 4.68244776119403 -2.5769492537313434 -1.3005597014925383
C 3.1110477611940297 3.755250746268656 2.588740298507462
H 3.40124776119403 4.809350746268656 2.534540298507462
H 2.9823477611940303 3.461750746268656 3.634840298507462
H 3.86514776119403 3.1392507462686563 2.091540298507462
C 1.99744776119403 3.9574507462686572 0.40494029850746194
H 2.67914776119403 3.230350746268657 -0.04295970149253803
H 1.03214776119403 3.981150746268657 -0.10175970149253821
H 2.4399477611940297 4.958250746268657 0.368240298507462
C 0.7418477611940297 4.4992507462686575 2.475440298507462
H -0.18475223880597014 4.424250746268656 1.901240298507462
H 0.57844776119403 4.189650746268656 3.511940298507462
H 1.1210477611940297 5.524350746268658 2.4432402985074617
N 3.00114776119403 -2.025349253731343 -2.490159701492538
N 1.7831477611940298 3.586450746268657 1.862540298507462
C -3.55075223880597 -3.8435492537313434 0.6444402985074619
H -2.62515223880597 -2.2736492537313433 1.7424402985074618
H -4.67195223880597 -1.3478492537313436 1.5102402985074619
H -4.83415223880597 -1.6757492537313432 -0.1945597014925382
H -3.7169522388059697 0.17335074626865676 -0.900559701492538
H -3.9132522388059705 -4.043149253731343 -0.34225970149253815
H -4.35435223880597 -3.9354492537313432 1.3449402985074619
H -2.78115223880597 -4.545049253731343 0.8904402985074619
H -5.24235223880597 1.138950746268657 1.5249402985074618
H -5.92805223880597 0.6501507462686567 -0.006059701492538094
H -4.89895223880597 2.059650746268657 0.08004029850746197
C -0.6904192038226831 -4.974773924785996 1.1704840442925488
O 0.1937129547824188 -4.211453953688711 0.8135128319457803
O -1.2880170799808837 -4.917237038846569 2.251316015168504
O -1.1243728196562457 -5.922914058534104 0.5061325330568944
O -1.4242862879537082 -7.214836344035098 6.6366821466288215
H -1.430189443023666 -7.174319452157483 5.668544299453742
H -1.9532954071578372 -8.000485601523028 6.841295294563004
O 4.505247217290902 5.4254028792969 -4.14508897271465
H 3.8818425717432894 5.353516248157455 -3.4067351841599507
H 4.321300296479065 4.641313937576986 -4.683911769278037
O 6.202875626708856 -0.5000251047213008 0.3724249421571941
H 6.659849521993041 0.13306162946430655 0.9463094278570625
H 6.3233212132823455 -0.13784185143416594 -0.5182366636243247
O 1.0168797260100142 6.960051558857176 -2.7280498659037318
H 1.341245143631546 6.639203393943502 -3.5829246449344025
H 1.2055645226479297 6.231466858165695 -2.1177021570229555
O -1.6249706459285091 -3.6323120029966423 6.143163522382826
H -0.723925646123668 -3.4418518885401017 5.841816197808846
H -1.735719792265987 -3.0667045007387923 6.92212740105446
O 2.3080779474181976 -6.673609951427194 -3.715339090154694
H 2.3435177453373495 -6.621040554841687 -4.6822660967927785
H 2.073473288172651 -5.774508453259224 -3.4404953269866123
O 6.86692868774566 -0.2594022302146719 -2.7696520293507003
H 6.589822640406275 -0.1931666981495892 -3.695822882768146
H 6.612875026788655 -1.158614114578539 -2.5130654578526475
O -1.4972305940141517 6.703239607736197 -4.756732505225529
H -0.8442747866364539 6.755549145547772 -4.042673836231392
H -0.9601941161223607 6.638150278286396 -5.560671025826051
O 5.547168539814944 8.063183216244655 -2.4832255426096452
H 4.655764011949418 8.273533346489204 -2.1668110244425067
H 5.470765542798994 8.112367251897437 -3.4479563117799286
O -0.23556246951771165 -2.1522175951978366 -8.635321335220826
H -0.8090400211813682 -2.1185804851611154 -9.41567984223298
H 0.3799604006448103 -2.875331737150269 -8.828192998031328
O 4.134338557728423 0.5892477023390517 2.176893042544654
H 4.167986360320889 0.5943318077227466 1.2084874796975864
H 5.06376336448318 0.6519834310143875 2.4437182685568444
O 3.8099073886111525 -8.568570369965927 -0.739715478044938
H 3.6477733197214883 -9.462506632418789 -1.0766989483770744
H 2.924894711064144 -8.179773061160075 -0.6722532104696461
O -7.544350480587086 -1.92446031876384 -4.296557512421607
H -8.173034066934203 -2.553495054568287 -3.9117983587824026
H -6.696196331586782 -2.165936279402471 -3.8949534234643113
O -7.910538842529906 7.2459478331480955 -0.08173149188928441
H -8.151842116609204 7.835672661037549 -0.811775815330928
H -7.627229255431894 6.431073539466728 -0.5229542334333308
O 7.333566978633699 1.2966683915492214 5.7584255315344945
H 7.514625025009593 1.3876532112299294 4.810845928899331
H 7.697564272025509 0.4273884712975282 5.9838591912897465
O 2.8119509564596834 1.6772265327084643 6.417145870745186
H 3.5770583253737973 2.21575191494076 6.165017959507887
H 2.715354460176719 1.0503389008930553 5.684586686595043
O -3.6230067263437893 2.625284004693982 5.16179015835366
H -4.018184978947391 1.7858464970657906 4.8822437823153795
H -2.8777043995130267 2.35849986920664 5.720639521753962
O -8.394179062152967 -7.977198709746243 -0.1017354463631599
H -8.641180474065488 -8.100188883853374 -1.0306224559000143
H -7.818276895367185 -7.197999643108753 -0.11387847492704473
O 2.261814439130718 0.7544312223213236 -8.156206662640688
H 2.8278883273326145 0.09597200450617582 -8.586275457684286
H 2.117950021721542 0.3950077297742087 -7.267905065935631
O 9.652147106071645 -2.254205392890476 -2.3224266991075084
H 9.874170340920315 -2.9041497606551934 -3.0059801782869036
H 8.683362000015235 -2.2338928519751473 -2.324609189619527
C 8.587977907354372 4.65285098326904 3.405526859428002
O 7.534201531674595 5.055915868724439 3.805417226243738
O 9.641754283034148 4.249786097813643 3.0056364926122665
O -6.881065241898562 -8.26774521283097 16.405523715578965
H -7.2695660248899046 -7.630798491826746 17.023854834896987
H -5.9516370028048975 -8.318418146726307 16.674888424562322
O 3.7522421341659085 0.2630293336813523 -15.489346425404495
H 4.152100443551069 0.5176671645662863 -14.64421905961999
H 3.9107959560270293 1.027635656865706 -16.063105782992444
O 1.2885684222495766 11.72823302576584 1.2544054359846353
H 1.1490286748910747 11.665913961256596 2.2112817864112824
H 1.078913570519787 12.651248246574768 1.0469212447767222
O -16.618544573285956 4.018389971080027 2.8415060189993033
H -17.470709391435708 3.690419246033163 3.16587877235573
H -16.653556148178115 4.971305700742988 3.0138073425127265
O -8.245184322264562 -13.646205265665813 7.41822589903914
H -8.208895393421454 -13.569290642724322 6.452961887837443
H -7.353379685840249 -13.399959281611677 7.706339331716805
O -13.05459247538317 3.6985803275867113 0.7564282376419241
H -13.106123076838312 3.6907315531492424 1.7240285429092914
H -13.946590632977887 3.953520142363221 0.4765944977366834
O -3.1956548188947456 10.628444908478606 -11.697496338500008
H -4.126947976173485 10.621643000029303 -11.429888143283112
H -2.803300919483039 11.334068125832172 -11.161664054060154
O 11.628484049401187 17.098570294305716 -7.624872288776566
H 12.308507390634688 16.44875073190282 -7.857831831607802
H 10.956247176291738 16.991336180663723 -8.314481145740746
O 14.669697920711021 1.901782640302574 -9.901177229035698
H 14.87123467112966 1.875243193207603 -8.953735435109236
H 15.3284175247733 1.3116920421291933 -10.297211966743657
O 5.417199451963784 -12.94242257582949 -9.787252906184323
H 4.637516287565099 -13.22631697539158 -9.28678763271319
H 5.097619412736898 -12.194579835361488 -10.314094227985347
O 3.276891512651673 -2.700181348725409 -20.904245362643877
H 3.7346823423383775 -2.9249605610265066 -20.080310159565343
H 3.9767028393837824 -2.721481817115462 -21.574150088201034
O -5.32533100468817 -2.922936499180588 -16.61394123606966
H -4.963677397790855 -2.2077139769286327 -17.158579436328985
H -5.6589412609529 -2.470374282510217 -15.8247305029588
O 6.9566649930340905 -14.552261426550295 10.375850376298878
H 6.265258545074051 -13.91513024047891 10.610346287466957
H 7.710665861606476 -14.292607569238896 10.92632699603436
O 2.525511151864956 -9.335238927156274 -6.806929244871705
H 2.2030599676979525 -9.303788230364178 -7.720167135237951
H 2.1422506998069606 -8.545767341636965 -6.396066754680735
O -11.095331079919958 -8.639599896011779 -3.428570160738527
H -10.35547248862525 -8.974691898676038 -3.9570490832490357
H -11.88126317570762 -8.946946587788691 -3.9048166265150175
O -0.723982911543283 -10.097825405496325 -4.648295993216303
H -0.9044423907453321 -10.880315512561792 -5.190615977737252
H -0.3946127804910353 -10.462699988356935 -3.8132248586098436
O 1.4482559542032465 -5.564542120564015 5.135904707341726
H 1.2145741274951476 -5.375337124598056 6.057078757273598
H 1.3086836864380131 -4.720463773252898 4.680917597665633
O 6.483070851323287 -1.8634796186979798 3.052805408810726
H 6.462636822041432 -2.305490847255155 2.190728915002499
H 6.76035643893794 -2.5601863659874526 3.6665434274168067
O 1.9709955032766837 4.416496002291915 17.28971634443763
H 2.5199721279922676 4.6766685929059655 18.044635045695628
H 1.9999325438317808 3.4480057907577795 17.302016838186848
O -10.171734240014214 3.5332313122120884 -9.770414381944311
H -9.35937164931666 4.02095802740528 -9.56754242867817
H -10.14385407535295 2.772423833894457 -9.170950770326037