194

C -5.0710522388059704 1.0783507462686561 0.47044029850746183
C -3.8153522388059704 0.1782507462686569 0.19534029850746193
C -4.11845223880597 -1.3219492537313435 0.5608402985074619
C -2.96945223880597 -2.3874492537313436 0.7034402985074619
C -2.52015223880597 0.7359507462686565 0.7384402985074618
C -2.20305223880597 0.7852507462686571 2.097440298507462
C -1.5755522388059702 1.205650746268656 -0.18965970149253808
C -0.9533522388059701 1.2695507462686564 2.508640298507462
H -2.91125223880597 0.4298507462686567 2.840840298507462
C -0.32655223880597006 1.6562507462686575 0.21554029850746192
H -1.7850522388059702 1.178550746268657 -1.2573597014925382
C 0.004447761194029898 1.6956507462686563 1.569740298507462
H -0.7158522388059702 1.2676507462686573 3.5705402985074617
H 0.3943477611940298 1.9193507462686572 -0.5551597014925382
C -1.76045223880597 -2.1592492537313435 -0.1734597014925381
C -0.5287522388059701 -1.936549253731343 0.464840298507462
C -1.8068522388059702 -2.121249253731343 -1.5681597014925381
C 0.6114477611940299 -1.614449253731343 -0.2582597014925381
H -0.4544522388059702 -1.954049253731343 1.5506402985074619
C -0.6479522388059701 -1.8270492537313432 -2.2998597014925384
H -2.74345223880597 -2.290549253731343 -2.092259701492538
C 0.5698477611940298 -1.5506492537313434 -1.6506597014925382
H 1.5072477611940298 -1.351949253731343 0.2991402985074618
H -0.7173522388059701 -1.7640492537313435 -3.3840597014925375
C 1.7791477611940298 -1.082849253731343 -2.4255597014925376
H 1.4739477611940297 -0.9102492537313429 -3.464259701492538
H 2.1252477611940295 -0.1337492537313434 -2.0010597014925384
C 1.3965477611940298 2.0964507462686566 1.997440298507462
H 1.51704776119403 1.8448507462686567 3.057640298507462
H 2.1256477611940294 1.5207507462686571 1.4165402985074618
C 3.94864776119403 -1.4275492537313434 -3.522959701492538
H 4.81734776119403 -2.087049253731343 -3.615159701492538
H 3.4305477611940303 -1.3641492537313429 -4.484459701492538
H 4.26984776119403 -0.441449253731343 -3.176459701492538
C 2.60904776119403 -3.4296492537313434 -2.8992597014925376
H 1.9825477611940296 -3.869549253731343 -2.119359701492538
H 2.06294776119403 -3.373349253731343 -3.845759701492538
H 3.5215477611940305 -4.019849253731343 -3.0234597014925377
C 3.7281477611940304 -2.060049253731343 -1.156659701492538
H 3.9048477611940298 -1.032549253731343 -0.8295597014925382
H 3.12924776119403 -2.623249253731343 -0.4404597014925382
H 4.68244776119403 -2.5769492537313434 -1.3005597014925383
C 3.1110477611940297 3.755250746268656 2.588740298507462
H 3.40124776119403 4.809350746268656 2.534540298507462
H 2.9823477611940303 3.461750746268656 3.634840298507462
H 3.86514776119403 3.1392507462686563 2.091540298507462
C 1.99744776119403 3.9574507462686572 0.40494029850746194
H 2.67914776119403 3.230350746268657 -0.04295970149253803
H 1.03214776119403 3.981150746268657 -0.10175970149253821
H 2.4399477611940297 4.958250746268657 0.368240298507462
C 0.7418477611940297 4.4992507462686575 2.475440298507462
H -0.18475223880597014 4.424250746268656 1.901240298507462
H 0.57844776119403 4.189650746268656 3.511940298507462
H 1.1210477611940297 5.524350746268658 2.4432402985074617
N 3.00114776119403 -2.025349253731343 -2.490159701492538
N 1.7831477611940298 3.586450746268657 1.862540298507462
C -3.55075223880597 -3.8435492537313434 0.6444402985074619
H -2.62515223880597 -2.2736492537313433 1.7424402985074618
H -4.67195223880597 -1.3478492537313436 1.5102402985074619
H -4.83415223880597 -1.6757492537313432 -0.1945597014925382
H -3.7169522388059697 0.17335074626865676 -0.900559701492538
H -3.9132522388059705 -4.043149253731343 -0.34225970149253815
H -4.35435223880597 -3.9354492537313432 1.3449402985074619
H -2.78115223880597 -4.545049253731343 0.8904402985074619
H -5.24235223880597 1.138950746268657 1.5249402985074618
H -5.92805223880597 0.6501507462686567 -0.006059701492538094
H -4.89895223880597 2.059650746268657 0.08004029850746197
C -2.006514416133485 2.555720244763256 -4.037491932628099
O -2.689836106590731 2.8834040818333184 -3.0796452492420316
O -2.4291835866180405 2.372171104153922 -5.184789605162771
O -0.7865747475424826 2.3569473325604786 -4.007744348314369
O -4.444513401753169 -0.48753400223651333 7.306713080102719
H -3.6967280118099026 0.05655122319436945 7.596118738228513
H -4.033336130129952 -1.1894451914472093 6.780200138133281
O 0.75006403304356 8.298864670657588 5.693595285443421
H 0.9987723381089249 7.9191885287135415 4.837465877509083
H 0.23697286843014242 9.086969209235257 5.459948891572411
O -1.5966675897999103 7.340879537436956 0.05194588048836235
H -1.2442477391735653 7.739366808700527 0.8618690252529864
H -1.8136347121956868 6.433246414757217 0.3128851966404542
O -9.045409550557277 -7.138305277561227 -2.403370267701832
H -8.700445801117962 -6.916925128159204 -1.5253280147757513
H -8.906994444356565 -8.094696197251292 -2.4749217275740047
O 1.978716926156995 8.85516983904154 -8.697699193724354
H 2.2614884697932167 8.440218660281264 -9.526447122985747
H 2.0666038267159506 8.148707304652866 -8.040319148000975
O -0.265844109027082 3.3346746410437538 -8.228977868770807
H -0.7210459915993757 3.52490580231386 -9.062986686640539
H 0.4290157778755894 2.7074262326539165 -8.479359809106011
O 3.6360350156694725 -6.20264741211694 1.3556865157902962
H 3.5326742490302725 -7.11270837789889 1.039343430865428
H 4.588923235761185 -6.114620483361314 1.5080585740040529
O -9.191831026826835 -6.82553795032192 -7.0698570621776495
H -9.10633338063328 -6.824209414899485 -8.035080219996088
H -8.593338373792315 -6.120363211389164 -6.780898455912292
O -0.937382106526848 -1.4270908050836457 4.515179373002447
H -1.0411423265963924 -1.6361826938598387 5.455648275029051
H -0.7027983828841111 -2.276031072357221 4.11115852762021
O -1.3992121488206317 10.325373384539315 -1.8242609414274171
H -1.978234213934773 9.568042896492466 -1.997902344571015
H -1.6228411046440074 10.95643969613897 -2.5247660054928787
O -6.4564065784195215 -2.274515465790744 -2.4720932371840187
H -6.866788195429509 -2.5856434386135003 -3.2929182306189593
H -5.505587400226677 -2.3255044390308086 -2.651829041320551
O -4.236307046976298 4.776935376987434 0.5730059550033744
H -4.883742272803957 4.901277874761016 -0.1371587642730172
H -4.189351799914417 5.644770616934915 1.0015140008772585
O 6.662934788631033 -6.963579573645349 6.505137278126472
H 7.129906743631034 -7.617560448381839 5.963645297001753
H 7.12431081517986 -6.992469809728799 7.356758943354088
O 1.8371620122950294 -8.26842294902345 -1.304191637229831
H 1.5534277135902408 -8.051234685734121 -0.4034744435847514
H 1.6995210791063327 -7.445933809476614 -1.797677739504709
O 7.384482809399023 -7.854594647889684 2.035646016627364
H 7.500346306052278 -8.531438171854646 1.3519605252572635
H 6.944983654717074 -8.325784168712635 2.7593744690185154
O -1.3198422501751754 -0.06180029042503932 -7.004090850500656
H -1.5066536731939482 -0.6483437589388563 -6.255735581478327
H -2.197059009656252 0.17193043578446895 -7.342945758700456
O -0.06039505646667753 7.836040895357858 -3.3131073541432423
H 0.8434876540046452 8.112284658042004 -3.0994422278611986
H 0.025439886206829465 6.8929299423583625 -3.5183779980468897
O 8.891701102771744 3.1447238548732535 0.9390996710697426
H 8.196158904025669 2.547868737622841 1.2536666363974325
H 9.712183833511366 2.729889531091686 1.2451756692642155
O 5.813401280567751 -3.6651583124337876 -7.676485192621372
H 4.979127199824953 -3.8476478568441346 -8.134362557514706
H 5.562061973388156 -3.6184460615552245 -6.7418149499238
O -6.665621028876055 -1.7057707209855455 9.292972292552308
H -7.317307301519027 -1.0096215795216053 9.465160363532064
H -5.983691421210641 -1.5595875888348067 9.965701395805539
C 9.2124592199342 19.349028761251084 -1.3212422629206433
O 8.100522386235149 19.428145097579147 -0.8851742172106292
O 10.324396053633254 19.26991242492302 -1.7573103086306556
O -5.2863919953781 -8.350527278883872 -10.305132959798714
H -5.312721590069543 -8.639878533501653 -11.229551674881062
H -4.437450257798438 -7.889721947038614 -10.228202363556345
O -15.615899898866665 8.260613283747897 -15.302165533291522
H -15.564954282971373 8.283057285445906 -14.334762738221736
H -15.258663606448552 7.390543458920001 -15.53523778733158
O 9.796415878068624 4.117060795556068 13.590229498905872
H 9.902074238013892 3.856456072205299 12.662927581491187
H 10.09460158860148 5.03883443733449 13.609737949806904
O 2.9021486868727333 14.914912260960044 10.320651952781748
H 3.1884839230974533 14.34651672659954 11.05134067304173
H 2.6356651005220897 14.290664245719135 9.629086440358314
O -2.599271123207061 -14.062354581332514 -8.00409633085352
H -2.5777193404718046 -13.851764465084623 -8.94969385649518
H -3.5084417193713655 -13.856910102531577 -7.739212700743137
O 12.94427920177209 -12.503791481961027 0.7884114865900678
H 12.407545506689912 -13.004183784108957 1.4212557339483958
H 13.503468870393203 -11.943515053975222 1.3473025162647954
O -18.803423354215834 -6.141311563507824 5.806451635210049
H -18.3502232483654 -5.306072921009392 5.616837735312042
H -19.197362087627393 -6.391867352095505 4.957336792904664
O 7.014531350234847 -1.239799716960262 7.30015648793747
H 7.666521274006326 -1.1169901290708428 6.593902779046046
H 7.531770681518377 -1.5999724308769736 8.036159908189873
O -3.209843952853946 15.488183259203122 -0.7069459745823712
H -3.2547211991928116 15.090902125791928 -1.5896243365560627
H -3.6791845311902796 16.330229347162298 -0.8051282111609113
O -5.909562247887005 13.847425275979639 -6.50532592684538
H -6.056925260870227 13.874184869776075 -7.462684492610767
H -6.71484192970332 13.43704190692269 -6.155937792022114
O 0.36145108659069347 -12.233234305088159 14.357223374738156
H 1.1876425591503024 -12.249783916306798 14.863287716436226
H 0.6156525257307024 -11.844578809869484 13.50675851439678
O -9.749567943799429 -7.07309376421909 2.5262635772581907
H -10.022418900757074 -7.4432439549775165 1.6733224606101542
H -8.862207837462428 -6.722849439065559 2.3563138827032004
O 9.360266809009714 11.555872053672548 13.749880162869736
H 9.507939126279236 11.48596611530668 14.705010208148094
H 10.253794957030902 11.598712076229129 13.377409861421183
O 8.258193208287372 5.59455477766444 11.506858820907038
H 8.366573076326173 5.562945518294503 10.544454531730198
H 7.298371926949292 5.636765681670314 11.633046347127078
O 12.8608548358717 -7.659724290339479 -1.0697140598917079
H 13.548627550618434 -7.208922005122043 -1.58226976358902
H 13.27228352142578 -7.807238482565122 -0.2048857855532369
O -3.1225634109025147 14.589270267065721 10.57659439372536
H -3.8551356804986034 14.436652619469807 11.192234776059989
H -2.339629819737783 14.297924571379049 11.06760826494566
O -8.905573631156418 5.033859635208998 15.264110639766827
H -8.160516476224036 4.563284030408441 14.861102211876474
H -9.070543494258242 5.772675577456142 14.659215696781164
O 20.80511127110135 7.822067454402788 -12.85287324112818
H 20.806380266710974 7.737544462861262 -11.887564166038228
H 20.902883549781663 6.91088046062941 -13.167739543230976
O -4.416019492736494 7.774701929931421 5.74810228601316
H -4.680515868573051 7.677623826293328 6.675240283219271
H -3.658058743144805 8.37740618043371 5.782815868439649
O -9.256339228168914 5.640009443688324 -16.03593950219773
H -9.519452010681135 4.7077506574254 -16.01078843831852
H -9.795631191693403 6.016296883964932 -16.747651441586118