194

C -5.0710522388059704 1.0783507462686561 0.47044029850746183
C -3.8153522388059704 0.1782507462686569 0.19534029850746193
C -4.11845223880597 -1.3219492537313435 0.5608402985074619
C -2.96945223880597 -2.3874492537313436 0.7034402985074619
C -2.52015223880597 0.7359507462686565 0.7384402985074618
C -2.20305223880597 0.7852507462686571 2.097440298507462
C -1.5755522388059702 1.205650746268656 -0.18965970149253808
C -0.9533522388059701 1.2695507462686564 2.508640298507462
H -2.91125223880597 0.4298507462686567 2.840840298507462
C -0.32655223880597006 1.6562507462686575 0.21554029850746192
H -1.7850522388059702 1.178550746268657 -1.2573597014925382
C 0.004447761194029898 1.6956507462686563 1.569740298507462
H -0.7158522388059702 1.2676507462686573 3.5705402985074617
H 0.3943477611940298 1.9193507462686572 -0.5551597014925382
C -1.76045223880597 -2.1592492537313435 -0.1734597014925381
C -0.5287522388059701 -1.936549253731343 0.464840298507462
C -1.8068522388059702 -2.121249253731343 -1.5681597014925381
C 0.6114477611940299 -1.614449253731343 -0.2582597014925381
H -0.4544522388059702 -1.954049253731343 1.5506402985074619
C -0.6479522388059701 -1.8270492537313432 -2.2998597014925384
H -2.74345223880597 -2.290549253731343 -2.092259701492538
C 0.5698477611940298 -1.5506492537313434 -1.6506597014925382
H 1.5072477611940298 -1.351949253731343 0.2991402985074618
H -0.7173522388059701 -1.7640492537313435 -3.3840597014925375
C 1.7791477611940298 -1.082849253731343 -2.4255597014925376
H 1.4739477611940297 -0.9102492537313429 -3.464259701492538
H 2.1252477611940295 -0.1337492537313434 -2.0010597014925384
C 1.3965477611940298 2.0964507462686566 1.997440298507462
H 1.51704776119403 1.8448507462686567 3.057640298507462
H 2.1256477611940294 1.5207507462686571 1.4165402985074618
C 3.94864776119403 -1.4275492537313434 -3.522959701492538
H 4.81734776119403 -2.087049253731343 -3.615159701492538
H 3.4305477611940303 -1.3641492537313429 -4.484459701492538
H 4.26984776119403 -0.441449253731343 -3.176459701492538
C 2.60904776119403 -3.4296492537313434 -2.8992597014925376
H 1.9825477611940296 -3.869549253731343 -2.119359701492538
H 2.06294776119403 -3.373349253731343 -3.845759701492538
H 3.5215477611940305 -4.019849253731343 -3.0234597014925377
C 3.7281477611940304 -2.060049253731343 -1.156659701492538
H 3.9048477611940298 -1.032549253731343 -0.8295597014925382
H 3.12924776119403 -2.623249253731343 -0.4404597014925382
H 4.68244776119403 -2.5769492537313434 -1.3005597014925383
C 3.1110477611940297 3.755250746268656 2.588740298507462
H 3.40124776119403 4.809350746268656 2.534540298507462
H 2.9823477611940303 3.461750746268656 3.634840298507462
H 3.86514776119403 3.1392507462686563 2.091540298507462
C 1.99744776119403 3.9574507462686572 0.40494029850746194
H 2.67914776119403 3.230350746268657 -0.04295970149253803
H 1.03214776119403 3.981150746268657 -0.10175970149253821
H 2.4399477611940297 4.958250746268657 0.368240298507462
C 0.7418477611940297 4.4992507462686575 2.475440298507462
H -0.18475223880597014 4.424250746268656 1.901240298507462
H 0.57844776119403 4.189650746268656 3.511940298507462
H 1.1210477611940297 5.524350746268658 2.4432402985074617
N 3.00114776119403 -2.025349253731343 -2.490159701492538
N 1.7831477611940298 3.586450746268657 1.862540298507462
C -3.55075223880597 -3.8435492537313434 0.6444402985074619
H -2.62515223880597 -2.2736492537313433 1.7424402985074618
H -4.67195223880597 -1.3478492537313436 1.5102402985074619
H -4.83415223880597 -1.6757492537313432 -0.1945597014925382
H -3.7169522388059697 0.17335074626865676 -0.900559701492538
H -3.9132522388059705 -4.043149253731343 -0.34225970149253815
H -4.35435223880597 -3.9354492537313432 1.3449402985074619
H -2.78115223880597 -4.545049253731343 0.8904402985074619
H -5.24235223880597 1.138950746268657 1.5249402985074618
H -5.92805223880597 0.6501507462686567 -0.006059701492538094
H -4.89895223880597 2.059650746268657 0.08004029850746197
C -0.15839441358007056 -1.3556084176983374 4.508578956311322
O 0.09607245952666954 -0.46019093322535287 5.299306240266636
O 0.4674873822754311 -1.5860427329912827 3.467520135661804
O -1.0811838400710685 -2.1698978852384267 4.627072508075514
O -9.593481298466337 5.512330448160285 -1.6745689264920562
H -10.072490149096785 5.3989741761354 -2.509235466800412
H -9.552664302390978 4.617606294687816 -1.3047519361788011
O -0.21303521120902302 -7.826201158492794 3.5721239585950757
H -0.3975646995171367 -8.167265679724165 4.460150544459465
H 0.04638776839093284 -8.61244690633442 3.068656694558529
O -1.1611394070467114 -2.968934439433279 11.521077570626572
H -1.0504944796674778 -2.103427292624777 11.942530338761568
H -0.855265188099608 -2.827674886255904 10.612535526954609
O -2.2888976972859103 -7.635242527749434 3.5663590710672217
H -2.352002158316163 -7.478001386793713 4.520434753332012
H -2.504803800399744 -6.776477252368931 3.172825462923209
O 0.5153048146716239 -1.3267715161773102 -6.306336213826106
H 0.1823787592539421 -1.2801217730205867 -5.397517530046203
H 0.17355979275043287 -2.170767218245076 -6.63776273537081
O -0.7748777272678564 8.753062929103027 3.0967518494261586
H -0.754135117392964 9.188610051787215 3.9621048438493034
H -1.6258388815768454 8.289645551604561 3.0883024476984344
O 5.0113093552986925 0.22220538114931576 -8.041824096397237
H 4.893744394520587 0.8625733439805483 -8.75951115151013
H 4.10678600265871 0.013174121136967032 -7.764145539128988
O 4.906449747487398 3.416318619562244 -6.086474303595168
H 4.966378344910749 4.324522514969685 -5.7539963276665045
H 4.053150922400057 3.100778380372045 -5.752891604918578
O -1.5287948387048038 8.942537082293157 -1.523433082308662
H -0.7521442238089211 9.447187061741847 -1.2386356498688913
H -2.2493834400985646 9.295502767341578 -0.9801750984559787
O 4.638287871644907 -1.878060879705067 1.9933818254039943
H 3.885282729515544 -1.5749986563796305 1.4641333944948587
H 4.574977347621578 -1.3590360080877089 2.8092046643160193
O -4.458664659849053 3.0651990958551574 6.608226850204193
H -4.224058653674056 3.1446853928674283 7.545034892096392
H -4.181995639867138 2.1668031088405546 6.373065526431972
O -6.208227509705519 -0.5808451554246759 3.8916331074669763
H -5.417744586837252 -0.0825943529295885 3.6350200848694416
H -5.960101741117167 -1.5058085985605738 3.74385565274325
O -0.6496468311371917 -7.210132144716611 7.87273977726277
H -1.4496363449557208 -6.772049390152966 7.545527866057928
H -0.39367394320204485 -7.801157646910186 7.148772457075614
O -1.5244596592587114 -8.104362040867274 -2.754737157664998
H -1.6665958282253248 -8.741840974839613 -3.470548079007348
H -1.7472266247858064 -7.250176396760412 -3.1543666220086513
O 5.5732670798892805 -2.8812208595462114 -6.1846475430199455
H 4.817394266861483 -2.4549951285253324 -5.75342222646123
H 5.944822702670439 -3.451888105724619 -5.495265749222882
O 6.074100101720541 -5.224744881260065 3.594328916965776
H 6.117781985373757 -4.410784150317362 4.118282329421243
H 5.526385559913168 -5.818498352977344 4.129518173039191
O 6.6120233454735455 -7.683474337034071 1.4062245699138773
H 5.772297900774078 -7.476256634564401 0.969315702748796
H 7.082109598154863 -8.232977063392031 0.7612225442851184
O 9.111197999723933 -2.6563017583201547 9.412826539455775
H 9.028543080793762 -1.8442799227836084 8.890566010707424
H 9.90837494523062 -3.0805067589059494 9.061371024019413
O -2.3440532874780664 -5.713419031536205 -6.701915296305549
H -2.342475382394854 -5.7724847430974755 -7.669115435280574
H -2.359443770590699 -6.6375932304632865 -6.411007875693688
O -4.691852719207309 -1.313361174245472 7.2380383141587
H -4.725496204466641 -1.2454270684513529 6.27200496583704
H -5.181579973246791 -0.5354388059712609 7.544576973856937
C 4.563988938373157 -0.6313869980356674 -15.961558677933647
O 5.080483023757267 0.4280036753185339 -16.17070818970301
O 4.047494852989047 -1.6907776713898692 -15.752409166164286
O -16.143432963572554 -10.660028675924158 -5.6453933074461835
H -15.53189192833508 -10.518060484332592 -4.907267334663149
H -15.918955137690853 -11.545634121564511 -5.96830915505911
O -8.779361464079884 6.329948806722582 13.341049878874287
H -8.275784195005777 6.1512389353181165 14.149406280985671
H -8.969633575678456 5.449321803660128 12.984322322712641
O 9.859400862263312 6.402551695741658 2.9456676499340815
H 10.223076721472243 7.300500061176887 2.925768922817797
H 9.601210891661692 6.234183603891665 2.026999010528378
O 3.511881827476814 15.099108277016114 6.593538762967832
H 3.4562467468473184 15.094913622200577 7.560934493563295
H 4.0966617864108255 14.353884167755604 6.389491290780567
O 6.350640196165738 -8.310382777375246 -12.612867186950794
H 6.278457025275922 -8.254685196997748 -13.577571663088634
H 6.873210551670549 -7.530770245380137 -12.371855843226578
O -3.2450740919063437 -1.3846648039790406 -11.19705209725478
H -3.4384437974758235 -2.204612891399126 -11.67586380116783
H -2.811994408746683 -1.6850250536175029 -10.383917635574889
O 4.3433317987330335 -14.439426509547937 -18.049865625855958
H 3.8514324780197757 -15.199407070326622 -18.395454923173382
H 4.856561406031606 -14.12740541966158 -18.81026036147574
O 7.223554598806772 -3.223195924738989 -16.800744184076528
H 7.053521988854094 -3.229197710182664 -17.75469399775866
H 6.448205729404 -2.7775978460912154 -16.427597527490605
O -6.879970243993899 -5.448878644891608 7.737245576106557
H -6.506687988974041 -4.877928153172563 7.04902813154919
H -6.391630310995388 -6.280374943583479 7.641851868763108
O 8.408502752836338 -1.2104204662042513 20.47808052285456
H 9.034616816333541 -1.0894079087716566 19.748488515404752
H 7.6064481540191204 -1.540418234044738 20.04590944788951
O -2.2771313981769854 11.002326373719653 -10.756001973079986
H -1.4728024683785694 10.672080198833159 -11.183739969477518
H -2.1519555795316334 10.782446799433608 -9.820616527641448
O 4.618123557748706 -10.098554260598132 6.0762648725265045
H 4.102283975613621 -9.703118470016378 5.357580367385559
H 5.289288809470162 -10.627303750255209 5.619183778661252
O -8.863973288278284 -6.745555299180778 -17.367409499798587
H -9.47081511045813 -7.420394386188566 -17.706971815728885
H -8.936495563891139 -6.021999791981185 -18.007854573041467
O -6.029530119416156 -18.053069371443975 -10.028951638075771
H -6.013203060879871 -18.170461871877375 -9.067224137740283
H -5.311703194126733 -18.621360158074125 -10.34633473696545
O -7.6954875075558675 3.311248851956611 -3.672857363340618
H -7.617221196997538 2.6655122879194084 -2.954619219409919
H -6.868927783795865 3.2112576957626278 -4.168601991189249
O 13.300434960055831 10.361638258740193 2.9096656082181065
H 13.473418458734848 10.345091462508387 3.8629600378772913
H 12.367912141393461 10.10861527725211 2.8365731475065497
O 2.2484881147283073 7.04005249148462 10.244632103287612
H 1.4887600696976269 7.3111218432384835 10.781569772885867
H 2.461020423302418 7.829464369272033 9.724419791514515
O -6.819009393849425 -21.691175058076045 -5.685891337612554
H -6.427110016760059 -22.55469635517526 -5.486609615939294
H -7.0491307278239415 -21.33215887926298 -4.815768645516632
O 1.9645697668436513 10.568351503057944 13.15575046468253
H 1.8123640031608705 10.438152149491762 12.20767404859958
H 1.5426042125572488 9.799758222498758 13.568268808971652
O -1.1888481437647365 24.02006255701727 -11.115588438375873
H -0.46575698208341265 23.386217053346265 -11.235364923022953
H -1.0098332101808012 24.706783607154097 -11.775383707495699