194

C -5.0710522388059704 1.0783507462686561 0.47044029850746183
C -3.8153522388059704 0.1782507462686569 0.19534029850746193
C -4.11845223880597 -1.3219492537313435 0.5608402985074619
C -2.96945223880597 -2.3874492537313436 0.7034402985074619
C -2.52015223880597 0.7359507462686565 0.7384402985074618
C -2.20305223880597 0.7852507462686571 2.097440298507462
C -1.5755522388059702 1.205650746268656 -0.18965970149253808
C -0.9533522388059701 1.2695507462686564 2.508640298507462
H -2.91125223880597 0.4298507462686567 2.840840298507462
C -0.32655223880597006 1.6562507462686575 0.21554029850746192
H -1.7850522388059702 1.178550746268657 -1.2573597014925382
C 0.004447761194029898 1.6956507462686563 1.569740298507462
H -0.7158522388059702 1.2676507462686573 3.5705402985074617
H 0.3943477611940298 1.9193507462686572 -0.5551597014925382
C -1.76045223880597 -2.1592492537313435 -0.1734597014925381
C -0.5287522388059701 -1.936549253731343 0.464840298507462
C -1.8068522388059702 -2.121249253731343 -1.5681597014925381
C 0.6114477611940299 -1.614449253731343 -0.2582597014925381
H -0.4544522388059702 -1.954049253731343 1.5506402985074619
C -0.6479522388059701 -1.8270492537313432 -2.2998597014925384
H -2.74345223880597 -2.290549253731343 -2.092259701492538
C 0.5698477611940298 -1.5506492537313434 -1.6506597014925382
H 1.5072477611940298 -1.351949253731343 0.2991402985074618
H -0.7173522388059701 -1.7640492537313435 -3.3840597014925375
C 1.7791477611940298 -1.082849253731343 -2.4255597014925376
H 1.4739477611940297 -0.9102492537313429 -3.464259701492538
H 2.1252477611940295 -0.1337492537313434 -2.0010597014925384
C 1.3965477611940298 2.0964507462686566 1.997440298507462
H 1.51704776119403 1.8448507462686567 3.057640298507462
H 2.1256477611940294 1.5207507462686571 1.4165402985074618
C 3.94864776119403 -1.4275492537313434 -3.522959701492538
H 4.81734776119403 -2.087049253731343 -3.615159701492538
H 3.4305477611940303 -1.3641492537313429 -4.484459701492538
H 4.26984776119403 -0.441449253731343 -3.176459701492538
C 2.60904776119403 -3.4296492537313434 -2.8992597014925376
H 1.9825477611940296 -3.869549253731343 -2.119359701492538
H 2.06294776119403 -3.373349253731343 -3.845759701492538
H 3.5215477611940305 -4.019849253731343 -3.0234597014925377
C 3.7281477611940304 -2.060049253731343 -1.156659701492538
H 3.9048477611940298 -1.032549253731343 -0.8295597014925382
H 3.12924776119403 -2.623249253731343 -0.4404597014925382
H 4.68244776119403 -2.5769492537313434 -1.3005597014925383
C 3.1110477611940297 3.755250746268656 2.588740298507462
H 3.40124776119403 4.809350746268656 2.534540298507462
H 2.9823477611940303 3.461750746268656 3.634840298507462
H 3.86514776119403 3.1392507462686563 2.091540298507462
C 1.99744776119403 3.9574507462686572 0.40494029850746194
H 2.67914776119403 3.230350746268657 -0.04295970149253803
H 1.03214776119403 3.981150746268657 -0.10175970149253821
H 2.4399477611940297 4.958250746268657 0.368240298507462
C 0.7418477611940297 4.4992507462686575 2.475440298507462
H -0.18475223880597014 4.424250746268656 1.901240298507462
H 0.57844776119403 4.189650746268656 3.511940298507462
H 1.1210477611940297 5.524350746268658 2.4432402985074617
N 3.00114776119403 -2.025349253731343 -2.490159701492538
N 1.7831477611940298 3.586450746268657 1.862540298507462
C -3.55075223880597 -3.8435492537313434 0.6444402985074619
H -2.62515223880597 -2.2736492537313433 1.7424402985074618
H -4.67195223880597 -1.3478492537313436 1.5102402985074619
H -4.83415223880597 -1.6757492537313432 -0.1945597014925382
H -3.7169522388059697 0.17335074626865676 -0.900559701492538
H -3.9132522388059705 -4.043149253731343 -0.34225970149253815
H -4.35435223880597 -3.9354492537313432 1.3449402985074619
H -2.78115223880597 -4.545049253731343 0.8904402985074619
H -5.24235223880597 1.138950746268657 1.5249402985074618
H -5.92805223880597 0.6501507462686567 -0.006059701492538094
H -4.89895223880597 2.059650746268657 0.08004029850746197
C 1.9383792718710566 -1.5951347094605453 3.9804859294734487
O 3.0622971075093752 -1.1253678528799762 4.069386423243101
O 0.9962136329654938 -1.077899331389907 3.369402517296521
O 1.5692286735064167 -2.660477128431456 4.487853400315084
O 6.629083024459574 -5.554268326692289 -4.067129179151125
H 6.57750974604434 -5.684718864970618 -5.025925409283681
H 6.237020702993146 -4.679024743280747 -3.92857323347114
O 4.030777221552679 10.082735179337682 3.6843612440787497
H 3.224459824150684 9.85043053236852 3.1997437015326615
H 4.641860621692958 9.358185610000561 3.482948871205616
O -1.4492814290779266 0.308058188110942 -7.117720255955936
H -1.204528993209642 1.211089271233488 -6.865532895148413
H -1.2213781461476079 0.25777543398598135 -8.058195498887503
O -1.854198133690312 6.293861786017031 9.034306720284535
H -2.092559559815664 7.217884634864631 9.20263070028458
H -1.1069718135115778 6.132683677256147 9.629820270078671
O -0.9676049995842844 6.186366777527825 -4.590680938087938
H -0.5407353626015303 5.445124853825718 -5.045994105554698
H -0.4175143022124903 6.950278782664379 -4.820464787331664
O -4.70229105684427 8.149580422304576 7.4590161934236905
H -3.7802701097348423 7.973399239109025 7.69944273247305
H -5.2142285644851425 7.670687990351744 8.128003466238917
O -2.9442407301511073 -1.4245646928313342 6.135872671606602
H -3.3144570969282134 -0.7371702385183345 6.7098030357189185
H -3.6629582290618226 -1.6255458920809724 5.517800136536728
O -4.770319696574574 -12.316793034842089 5.337758344659539
H -4.510419383093367 -12.124040670513168 4.424376874517964
H -4.8585624331936 -11.442206906670116 5.745525763837605
O 8.094081303941342 0.652427950047755 2.0372490680232223
H 7.671922092420582 -0.05959381161609478 1.5334892364116914
H 8.501807586000961 0.19718770479386993 2.789231476274254
O 8.084478021496157 6.251201430002125 5.248782774904045
H 7.938461126336815 6.8386098402053435 6.0054846863926805
H 8.065504775242307 5.362736579199845 5.635088572317795
O -2.676507242830316 5.197626391719503 5.867924137872114
H -2.5936336228743735 4.29844051190263 5.5164073195641485
H -2.0563337074079526 5.216042056624563 6.612241001544994
O -4.797767585509161 1.8070581815858007 5.420547180907649
H -3.8532518808360114 1.5992087610932764 5.36008182779772
H -5.225191547846487 1.1053847509438026 4.9068107723760495
O 0.19722383067090754 5.735234274347343 -7.488183718072857
H -0.7096723230375969 6.003118960045848 -7.276654716616942
H 0.08509293005356944 4.971379922627605 -8.073773279784437
O 4.6063948845155185 -5.111597330047413 4.267248573340032
H 4.613145861168575 -5.160243725803896 5.235006450804294
H 3.664780743046481 -5.0763947076910885 4.041227494091291
O -0.6554137691222142 3.3064736836836426 8.834442600054835
H -0.6067799260138558 3.432275368003493 7.874871840586415
H -1.4351823125706742 2.7445552605618833 8.957611787373024
O -1.6852463332997294 -9.051864480173126 2.7631984568595533
H -1.3741492038546514 -9.313769883179097 3.6427389578186133
H -1.0739356124283916 -8.34809732899453 2.4986744621639314
O 4.050139493663491 8.135444655210403 1.1893759542382716
H 3.891401983395208 7.796046576269201 0.29574364520683916
H 3.8353949743626012 7.38665376325746 1.7657082679762286
O 9.52555768964188 -3.1747749035559867 3.4836714105045328
H 8.959688903549369 -3.127757070341012 2.698464942633847
H 8.943670296365708 -2.900376475692211 4.208291661830804
O -0.539040433682417 7.212079190627959 -9.698965957372865
H -0.8247781107496559 6.286183488450338 -9.692762289648929
H -1.0225811140534713 7.601272748632853 -10.443061871307211
O -5.255456507094826 2.615054956443688 8.286144014364687
H -5.468532328790807 2.2988999857279713 9.176993095635092
H -6.114489383990589 2.652418004976584 7.839346002600402
C 1.9279031159610278 18.69656400859628 -9.095146169684682
O 2.571972281225043 18.866583294890567 -10.089674505100067
O 1.2838339506970111 18.526544722301995 -8.1006178342693
O 16.896735150366645 3.691208808433111 -2.424878747667159
H 16.113526024734078 3.9885078406884222 -1.9378837704385186
H 17.524532000461615 4.422902035846929 -2.3276260856594497
O -3.375184137891784 0.579344036492371 -9.177482443786833
H -3.336132844434923 0.29089774536106094 -8.253230805696893
H -4.173656597760651 0.15224268212062225 -9.52242897330232
O -10.264927656061605 -15.904396203946515 -7.14010735822819
H -10.217474287036833 -15.751995751342424 -6.184340840340968
H -9.549484974615655 -15.358833740043963 -7.499920242719566
O 2.243414083045777 11.890875645884492 -8.67887633526065
H 1.5547803690469646 11.657098018961019 -9.319266049414642
H 1.8205669156623343 11.749768521459998 -7.818497932014468
O -12.517835806835771 -4.568124401596171 -17.54148333659252
H -12.416715420725767 -4.622161223107612 -18.503679806308508
H -13.15311232909415 -5.269536842550792 -17.33314161671534
O -11.193136641438475 3.403598002196442 -9.796945318933666
H -12.107728639981923 3.3857150397207256 -9.47730640898465
H -11.161696515686195 4.18215432652793 -10.372986561064923
O -11.080122673536831 12.986258322525973 4.0360378016867395
H -10.373860949917404 12.976209070657443 3.372667055280929
H -10.78298285543721 13.642281123151523 4.684346337693427
O -5.084943615719401 -6.242565848779445 2.8068674470397634
H -5.381355007480657 -6.025893414372577 3.7036175236510553
H -5.738167150384828 -5.813144875133615 2.234278078074296
O -11.1492544683356 -1.4020606668233564 4.306864540493071
H -11.085110733670248 -1.4437659492681836 3.3408864829682736
H -11.51446781263903 -2.264721677910548 4.5546489980216425
O -13.595206910115213 3.6539307104499548 9.198414224801512
H -13.420974529266285 3.0716131076154607 9.953077489968702
H -14.225970875878305 4.303076383395385 9.544403616388946
O 10.868940008585717 4.0993822699770535 -11.828964997454635
H 10.492986043624501 4.905806237110398 -11.445159892794912
H 11.429648023414408 3.743664330287348 -11.123250314463144
O 4.272020975483656 -5.735557463070577 -14.567281679257144
H 4.763004339614572 -5.791541020047813 -15.400809443878616
H 3.3712890629087866 -5.999543772557292 -14.808020530240533
O 5.883295994543689 -11.122062413976506 -15.051483671613298
H 6.134741011827791 -11.093908807783972 -15.986871363771666
H 6.700378818185448 -10.895271278360877 -14.582545099499866
O -6.644477342221398 0.8743155761559811 -11.126287398408117
H -7.125238155608983 0.3504870503471196 -10.467925740381297
H -6.137319419216097 1.507644676235143 -10.596526097041295
O -20.09990734383931 -3.7670297856328085 -0.2942949425452026
H -20.024377928988557 -4.227879919178146 0.5547514747981301
H -20.14873135622974 -4.482831973150192 -0.9456054587042977
O 6.405396729638594 7.727538595405625 -2.484792038735393
H 7.242620866188522 7.606825122310656 -2.9574984587167354
H 6.653201800400364 7.66491549824566 -1.5501087025691556
O -8.934509482914024 4.033505552567212 2.7052562553493202
H -9.164186675126375 3.750947359244171 3.6032410055892505
H -8.625262038518008 3.221524411586273 2.276287038358375
O 3.2526610323512344 -18.54751545858813 -8.041351752371574
H 3.1150460994508684 -18.567396122041394 -7.082376128925654
H 3.619166549843743 -17.66592555532241 -8.206986568782511
O 8.979311271207 3.465796151277937 7.4726343602868575
H 9.28980098787765 3.343376581716822 8.382346920236566
H 8.497074639574858 2.648188056766519 7.277886371333192
O 6.857656397916434 2.5361000095007373 -12.926429912646825
H 7.211788907074021 2.199331250849217 -13.76317618604998
H 5.941613499238721 2.771081427939091 -13.137643276501551