194

C -5.0710522388059704 1.0783507462686561 0.47044029850746183
C -3.8153522388059704 0.1782507462686569 0.19534029850746193
C -4.11845223880597 -1.3219492537313435 0.5608402985074619
C -2.96945223880597 -2.3874492537313436 0.7034402985074619
C -2.52015223880597 0.7359507462686565 0.7384402985074618
C -2.20305223880597 0.7852507462686571 2.097440298507462
C -1.5755522388059702 1.205650746268656 -0.18965970149253808
C -0.9533522388059701 1.2695507462686564 2.508640298507462
H -2.91125223880597 0.4298507462686567 2.840840298507462
C -0.32655223880597006 1.6562507462686575 0.21554029850746192
H -1.7850522388059702 1.178550746268657 -1.2573597014925382
C 0.004447761194029898 1.6956507462686563 1.569740298507462
H -0.7158522388059702 1.2676507462686573 3.5705402985074617
H 0.3943477611940298 1.9193507462686572 -0.5551597014925382
C -1.76045223880597 -2.1592492537313435 -0.1734597014925381
C -0.5287522388059701 -1.936549253731343 0.464840298507462
C -1.8068522388059702 -2.121249253731343 -1.5681597014925381
C 0.6114477611940299 -1.614449253731343 -0.2582597014925381
H -0.4544522388059702 -1.954049253731343 1.5506402985074619
C -0.6479522388059701 -1.8270492537313432 -2.2998597014925384
H -2.74345223880597 -2.290549253731343 -2.092259701492538
C 0.5698477611940298 -1.5506492537313434 -1.6506597014925382
H 1.5072477611940298 -1.351949253731343 0.2991402985074618
H -0.7173522388059701 -1.7640492537313435 -3.3840597014925375
C 1.7791477611940298 -1.082849253731343 -2.4255597014925376
H 1.4739477611940297 -0.9102492537313429 -3.464259701492538
H 2.1252477611940295 -0.1337492537313434 -2.0010597014925384
C 1.3965477611940298 2.0964507462686566 1.997440298507462
H 1.51704776119403 1.8448507462686567 3.057640298507462
H 2.1256477611940294 1.5207507462686571 1.4165402985074618
C 3.94864776119403 -1.4275492537313434 -3.522959701492538
H 4.81734776119403 -2.087049253731343 -3.615159701492538
H 3.4305477611940303 -1.3641492537313429 -4.484459701492538
H 4.26984776119403 -0.441449253731343 -3.176459701492538
C 2.60904776119403 -3.4296492537313434 -2.8992597014925376
H 1.9825477611940296 -3.869549253731343 -2.119359701492538
H 2.06294776119403 -3.373349253731343 -3.845759701492538
H 3.5215477611940305 -4.019849253731343 -3.0234597014925377
C 3.7281477611940304 -2.060049253731343 -1.156659701492538
H 3.9048477611940298 -1.032549253731343 -0.8295597014925382
H 3.12924776119403 -2.623249253731343 -0.4404597014925382
H 4.68244776119403 -2.5769492537313434 -1.3005597014925383
C 3.1110477611940297 3.755250746268656 2.588740298507462
H 3.40124776119403 4.809350746268656 2.534540298507462
H 2.9823477611940303 3.461750746268656 3.634840298507462
H 3.86514776119403 3.1392507462686563 2.091540298507462
C 1.99744776119403 3.9574507462686572 0.40494029850746194
H 2.67914776119403 3.230350746268657 -0.04295970149253803
H 1.03214776119403 3.981150746268657 -0.10175970149253821
H 2.4399477611940297 4.958250746268657 0.368240298507462
C 0.7418477611940297 4.4992507462686575 2.475440298507462
H -0.18475223880597014 4.424250746268656 1.901240298507462
H 0.57844776119403 4.189650746268656 3.511940298507462
H 1.1210477611940297 5.524350746268658 2.4432402985074617
N 3.00114776119403 -2.025349253731343 -2.490159701492538
N 1.7831477611940298 3.586450746268657 1.862540298507462
C -3.55075223880597 -3.8435492537313434 0.6444402985074619
H -2.62515223880597 -2.2736492537313433 1.7424402985074618
H -4.67195223880597 -1.3478492537313436 1.5102402985074619
H -4.83415223880597 -1.6757492537313432 -0.1945597014925382
H -3.7169522388059697 0.17335074626865676 -0.900559701492538
H -3.9132522388059705 -4.043149253731343 -0.34225970149253815
H -4.35435223880597 -3.9354492537313432 1.3449402985074619
H -2.78115223880597 -4.545049253731343 0.8904402985074619
H -5.24235223880597 1.138950746268657 1.5249402985074618
H -5.92805223880597 0.6501507462686567 -0.006059701492538094
H -4.89895223880597 2.059650746268657 0.08004029850746197
C 3.4057850010836708 -0.5044663695774121 2.2273929572574613
O 3.4106493593808036 -1.0219906253534923 1.121083560523541
O 4.396392357895758 -0.03387337079785868 2.79824386443852
O 2.409488256834892 -0.37124531865113264 2.947318879411527
O -8.95113714443206 -0.09555786209109698 6.628642696651582
H -9.097436789834255 0.657151801074974 7.221088418749069
H -8.017425002578072 -0.020247317481933952 6.38070741815111
O 1.960612545049624 -8.4612644982581 -6.338487176660448
H 1.6100865840324703 -7.563003111728954 -6.434536065377303
H 2.3138764260841933 -8.669773036225351 -7.21637712662636
O -4.398329101813391 5.042480875327164 -2.4879575058158947
H -4.72788303369958 5.947341299998866 -2.380304476405189
H -4.348964676368205 4.924079152281252 -3.4484293324616457
O -7.697127090049169 -7.949961618545198 -1.4363482539414032
H -7.419268979608715 -7.2912660487032275 -0.7822210693411751
H -7.043126873223644 -7.8651212138490605 -2.146311468779441
O 6.58907153736243 0.006634201454987831 4.745181107840088
H 6.951227599666452 0.030531710312581506 3.8467161655597293
H 7.191404762568466 -0.5817232117735369 5.224756111788306
O 1.3174842612325 -5.657799057924192 4.552029202257079
H 1.5860379768266306 -5.380627315202981 5.4408610669972415
H 0.4837713507637495 -6.130174600132477 4.696064178360635
O -5.544990593776597 0.6822385619471483 8.420618425992583
H -5.435276298462515 -0.001813693242643133 7.743121088378997
H -6.504807373083672 0.7421415795696076 8.539468427844985
O -3.380117277042257 9.504132721822629 -8.516835477417573
H -3.4556589695010773 9.453525252425699 -7.552107695272943
H -3.073993412173766 8.621532562293762 -8.774259411925605
O -7.723717115733454 3.0619509868303902 2.854493805741915
H -7.360786114357765 3.5765151606580883 2.1179667144862973
H -7.03861390107593 3.115804465885895 3.5376448376225262
O -1.2139579189964502 -8.098445791794603 0.6962088371419446
H -0.38458518885211657 -8.599374713006592 0.6828504208313055
H -1.8978753435874747 -8.780167881339494 0.7766693446430093
O -3.6912747054644703 7.348409432605039 1.7685082252877913
H -3.7585580875180957 7.548160598408783 2.714309354045562
H -3.902721825485065 6.4043885152527995 1.7130414123594166
O 1.6332734841472285 5.5384798224093865 -2.047467655273243
H 0.7284022439931329 5.495489098010495 -1.7034804560090127
H 2.014337070398004 4.679291823322279 -1.8117804266027253
O 2.439478001115412 6.550335813224271 -9.72586376452206
H 2.4172739544439588 6.227646561329948 -10.639289176870161
H 3.3830584899608303 6.676618028535973 -9.545113640134245
O -0.566127630021839 7.2350760586054035 1.6022584319324173
H -0.9653200587977349 7.392327466309719 0.733417389806176
H 0.19476514130717826 7.8347467485281275 1.6222383840558003
O -2.6806353673875627 7.875192717860765 7.568812225198096
H -2.344789582268953 8.037622003905724 8.463122961213825
H -2.286181456618855 7.025389797949246 7.321419715430463
O 2.1015816840582793 1.908566486590027 6.307282553377533
H 1.152916311032074 1.7381518781515681 6.2074816107376005
H 2.139575066392697 2.775947291107115 6.737595215466484
O -8.555339524148454 -0.032954360397617344 1.8565769002796109
H -8.47028459532865 0.9210641171234817 2.003484219810612
H -8.131958729510572 -0.17603780086578535 0.9967875213642943
O -10.927698023680597 4.012344650227989 4.5922127340036365
H -10.63565492586582 3.0975590537089084 4.462422525128007
H -10.294473561255433 4.535387063514115 4.077999394629605
O 5.115423888814593 -3.6027228706706005 3.7662100098378835
H 5.010205676624441 -3.5739245708810614 4.729053269487522
H 5.747323235185869 -4.322897242947421 3.6212478290070123
O 11.72820677138354 1.0949808579796234 -3.856639426362796
H 11.21474120389757 1.9154676107789697 -3.9027041242028506
H 11.77510708432699 0.7962210630752098 -4.777239714161187
C 3.2391852683702442 -15.572315992958877 -4.583737930184308
O 2.237075783723581 -14.917727256548059 -4.573325233833758
O 4.241294753016907 -16.226904729369696 -4.594150626534858
O -5.6601189270380345 12.261802229361006 -6.26845419300493
H -5.476232954725905 12.254176199103833 -7.219819080810518
H -5.070840751458792 12.948422738047825 -5.921661094549013
O -13.374557949262247 -3.1980272361519346 -7.181522559687523
H -13.561349801282894 -2.2520229608984446 -7.277189022571952
H -12.928531550183482 -3.2629603565033944 -6.323731159925173
O 3.35984929167594 14.133100401781013 -6.073950163365395
H 3.074640071914452 13.735667927385911 -5.2374870821961
H 4.2277440430210795 14.512219162182726 -5.869036497644859
O 3.1291937989263614 -14.840408360276678 4.408283568348197
H 3.1421350980248923 -14.896080839858476 5.375599677329567
H 3.8981029792762127 -15.362170047502703 4.133501184602857
O -8.99654079021985 10.001937951417926 13.56506453514102
H -8.656259777434967 10.188137031539275 12.67708588010473
H -8.988258892548567 10.865419527459302 14.00471544473642
O -3.1568510929475604 4.181418248980736 11.886800414213985
H -2.3502185138914404 3.658356213857381 11.765485342117033
H -2.922653076626675 5.056171189184365 11.541951857516317
O 13.180085877369464 7.482279429775042 -6.440947830087515
H 12.29345926838154 7.411192041487491 -6.056490815115707
H 13.71871874864082 7.8448458925849405 -5.721655028558475
O -3.7208115794462078 2.653745748800664 -12.531274190638364
H -4.452569911191096 2.560971249482396 -13.15967692225097
H -4.009899517368638 3.3637109342629534 -11.938535172284375
O -8.75772739991483 8.53052628634553 -12.050756140178926
H -9.619655846856714 8.775403653401058 -11.681863494065855
H -8.732832173529784 7.5654906590003 -11.966801331158633
O -11.733570190981714 5.099600515967342 12.702636339260263
H -12.684202397510099 5.273814007026619 12.772746426579523
H -11.486264358310189 5.489969467267742 11.850924033791292
O 1.611959299900488 -14.067187275305368 11.482949716583953
H 2.065048738763229 -13.593542780490292 10.769270369942607
H 0.7274958978996746 -14.238001696660238 11.125865877299185
O 6.450455074460272 7.59832273855606 -13.319098031639484
H 6.074539609489751 8.183676203860994 -13.993646948139618
H 7.340481645020349 7.402741365112629 -13.648586384027016
O 7.796870306513565 7.348047986851306 -4.563495263828151
H 7.926506034125899 6.967594610296683 -3.6817826330381607
H 8.573061342327335 7.052244351704175 -5.062483870567912
O 10.020988179608723 -17.088199062520964 2.8518719326863877
H 9.84974795129341 -16.66834960801281 3.7082425164033497
H 9.136972241390456 -17.276936060629406 2.5027929862844434
O -6.6987008560548755 13.83576911963874 8.457861699376808
H -7.138868543993434 14.000738193415929 7.610509961258616
H -5.924326451006157 13.304152666428696 8.219764719593748
O -7.030379657905675 -6.264958657770651 -8.152391859577682
H -6.460328295472744 -6.3875224790183704 -8.926334306281255
H -7.415060462339415 -7.141832768949129 -8.003817244837595
O 16.12837131931929 -13.42434969162215 -0.05869775561649382
H 16.403149294005587 -14.19760117635912 0.4566143467829833
H 15.765458587369487 -12.818092971562058 0.6044078790079688
O -6.859288279751872 -5.646197520471041 12.379801129463392
H -6.811214874731886 -5.680721802449084 13.346995204395451
H -7.700816018764727 -6.079184075497226 12.171677003186618
O -22.010498796776645 -0.7414004860429353 10.329608230052433
H -21.471798812370405 0.028265958312961637 10.092156659972824
H -22.870464383575488 -0.3616732696023206 10.564615410615033
O 13.984304840612877 -5.706847779186903 -15.315541497663254
H 14.370765139209098 -6.578427260550345 -15.488645518919713
H 13.039509384274787 -5.8305741183887365 -15.491653061652144