194

C -5.0710522388059704 1.0783507462686561 0.47044029850746183
C -3.8153522388059704 0.1782507462686569 0.19534029850746193
C -4.11845223880597 -1.3219492537313435 0.5608402985074619
C -2.96945223880597 -2.3874492537313436 0.7034402985074619
C -2.52015223880597 0.7359507462686565 0.7384402985074618
C -2.20305223880597 0.7852507462686571 2.097440298507462
C -1.5755522388059702 1.205650746268656 -0.18965970149253808
C -0.9533522388059701 1.2695507462686564 2.508640298507462
H -2.91125223880597 0.4298507462686567 2.840840298507462
C -0.32655223880597006 1.6562507462686575 0.21554029850746192
H -1.7850522388059702 1.178550746268657 -1.2573597014925382
C 0.004447761194029898 1.6956507462686563 1.569740298507462
H -0.7158522388059702 1.2676507462686573 3.5705402985074617
H 0.3943477611940298 1.9193507462686572 -0.5551597014925382
C -1.76045223880597 -2.1592492537313435 -0.1734597014925381
C -0.5287522388059701 -1.936549253731343 0.464840298507462
C -1.8068522388059702 -2.121249253731343 -1.5681597014925381
C 0.6114477611940299 -1.614449253731343 -0.2582597014925381
H -0.4544522388059702 -1.954049253731343 1.5506402985074619
C -0.6479522388059701 -1.8270492537313432 -2.2998597014925384
H -2.74345223880597 -2.290549253731343 -2.092259701492538
C 0.5698477611940298 -1.5506492537313434 -1.6506597014925382
H 1.5072477611940298 -1.351949253731343 0.2991402985074618
H -0.7173522388059701 -1.7640492537313435 -3.3840597014925375
C 1.7791477611940298 -1.082849253731343 -2.4255597014925376
H 1.4739477611940297 -0.9102492537313429 -3.464259701492538
H 2.1252477611940295 -0.1337492537313434 -2.0010597014925384
C 1.3965477611940298 2.0964507462686566 1.997440298507462
H 1.51704776119403 1.8448507462686567 3.057640298507462
H 2.1256477611940294 1.5207507462686571 1.4165402985074618
C 3.94864776119403 -1.4275492537313434 -3.522959701492538
H 4.81734776119403 -2.087049253731343 -3.615159701492538
H 3.4305477611940303 -1.3641492537313429 -4.484459701492538
H 4.26984776119403 -0.441449253731343 -3.176459701492538
C 2.60904776119403 -3.4296492537313434 -2.8992597014925376
H 1.9825477611940296 -3.869549253731343 -2.119359701492538
H 2.06294776119403 -3.373349253731343 -3.845759701492538
H 3.5215477611940305 -4.019849253731343 -3.0234597014925377
C 3.7281477611940304 -2.060049253731343 -1.156659701492538
H 3.9048477611940298 -1.032549253731343 -0.8295597014925382
H 3.12924776119403 -2.623249253731343 -0.4404597014925382
H 4.68244776119403 -2.5769492537313434 -1.3005597014925383
C 3.1110477611940297 3.755250746268656 2.588740298507462
H 3.40124776119403 4.809350746268656 2.534540298507462
H 2.9823477611940303 3.461750746268656 3.634840298507462
H 3.86514776119403 3.1392507462686563 2.091540298507462
C 1.99744776119403 3.9574507462686572 0.40494029850746194
H 2.67914776119403 3.230350746268657 -0.04295970149253803
H 1.03214776119403 3.981150746268657 -0.10175970149253821
H 2.4399477611940297 4.958250746268657 0.368240298507462
C 0.7418477611940297 4.4992507462686575 2.475440298507462
H -0.18475223880597014 4.424250746268656 1.901240298507462
H 0.57844776119403 4.189650746268656 3.511940298507462
H 1.1210477611940297 5.524350746268658 2.4432402985074617
N 3.00114776119403 -2.025349253731343 -2.490159701492538
N 1.7831477611940298 3.586450746268657 1.862540298507462
C -3.55075223880597 -3.8435492537313434 0.6444402985074619
H -2.62515223880597 -2.2736492537313433 1.7424402985074618
H -4.67195223880597 -1.3478492537313436 1.5102402985074619
H -4.83415223880597 -1.6757492537313432 -0.1945597014925382
H -3.7169522388059697 0.17335074626865676 -0.900559701492538
H -3.9132522388059705 -4.043149253731343 -0.34225970149253815
H -4.35435223880597 -3.9354492537313432 1.3449402985074619
H -2.78115223880597 -4.545049253731343 0.8904402985074619
H -5.24235223880597 1.138950746268657 1.5249402985074618
H -5.92805223880597 0.6501507462686567 -0.006059701492538094
H -4.89895223880597 2.059650746268657 0.08004029850746197
C -2.784589960900159 4.1435650602506575 -1.4909609380548048
O -3.6533236903487123 3.7211423328678306 -2.2383806630479715
O -2.36527952136752 3.5606032424781198 -0.48449894750658595
O -2.190312500214473 5.219396149213828 -1.6253862040626972
O -3.9048517679821018 6.5524739970463255 4.906328091159068
H -3.885066060347516 7.415783197258486 5.3459564654736
H -4.830395055123554 6.274580881698624 4.9777912590831415
O -1.749929592646884 -5.522988934334867 -6.354895053051971
H -1.5870100956264717 -5.369253029929344 -5.412138527703442
H -2.506486012325872 -4.9525218988191275 -6.557753845152277
O -4.1759615511946935 2.6044302380931708 6.945431093495493
H -3.8020694102853483 3.497332434145493 6.901868584945494
H -3.419433353770977 2.025053598259552 6.769505711535055
O 2.277975831665811 -4.454366825476256 8.444823687389066
H 2.9467230785000136 -3.9237066103155507 7.98640879583637
H 2.570038824018102 -4.45168001910035 9.36875763192716
O 6.819991425677855 -0.09483815792090589 -2.307022791563584
H 6.636872335220418 -0.6078105076244693 -3.108455336479029
H 6.45141817331066 0.7803121480128432 -2.499967457111854
O -10.643104347135054 -1.5476001676390951 -2.3219593149815316
H -11.436149352929181 -1.2417014489409848 -1.8566927789144656
H -10.89318238987514 -1.5143543255886769 -3.2575434270877848
O -0.434234310769968 7.795922275171549 -8.474349606871234
H -0.7882183421203326 7.85161608022276 -7.574038070497372
H -1.1378603828827898 7.35724268578699 -8.975780073437113
O -4.735670817420836 0.29560970182906177 4.385166849337015
H -5.3624547355609975 0.232875840008405 3.6488423696122574
H -4.44097699758394 -0.6175720116980439 4.520135938130107
O 7.007071076987865 1.423484737307244 8.083935774609081
H 7.945113908715936 1.633190650708041 8.206681172194166
H 6.633511663988836 1.4911000380682502 8.975475723440777
O 4.465162123597441 5.8786537094800675 -3.849533641536093
H 4.752255255708976 5.941319473765143 -2.926160535808534
H 5.292915798511119 5.888720802826549 -4.353204617073153
O -8.620943327670137 5.790930136978293 0.09056732144697754
H -9.40174633527019 5.330461316256814 0.43303262679349563
H -8.92182700647663 6.704130082561825 -0.02983540075691149
O 4.725681324239083 -0.7222633472480702 9.828105437753727
H 4.202444800837332 -0.6749537693323928 10.64232451227599
H 4.560768882940586 -1.6173588139195578 9.49558485711379
O -0.9255490094631038 -3.4165058166240985 5.668575822259062
H -1.029471011271561 -4.3771022170660006 5.594940709044066
H -0.8529277497305765 -3.261365434436976 6.6223155974334516
O -5.877133219960001 5.567510814069745 -2.1245391500362643
H -6.4839865003440815 6.062970708451296 -2.694816228346892
H -6.39340358888194 4.7954528458410906 -1.8482180611417554
O -2.6317626091838955 -4.794774403727484 -3.1539333330894035
H -2.303314453278279 -5.6965469652310565 -3.287707071549106
H -3.3951065803169422 -4.733222869645861 -3.7476330338532065
O -0.4700731181735307 -0.6341563245638321 7.840789193031789
H -0.28394754642460773 0.12371268924645296 8.41520993286224
H -1.0895298176909631 -1.1720937483503993 8.356404039416994
O 4.936514342309166 -7.669628333815675 -3.147386034889718
H 5.5710473698315095 -8.065331058378396 -2.531143754891852
H 4.546977392811196 -6.938434840539692 -2.6448136672980627
O -1.5581269067240269 7.9812418140635835 -1.2237828502761756
H -0.5971809601085686 7.954305397663339 -1.3455394683913084
H -1.776248492027316 7.099083972605349 -0.8873568389772175
O -3.3813955136819382 -0.9705856470023999 -6.391847883452462
H -3.923338172067541 -0.7695837892053952 -5.61411800419868
H -2.6713137357060788 -0.3120587868733835 -6.358860198246296
O 1.6935319171662744 -5.3752864850218725 -0.26073549711940913
H 2.5056243140837826 -4.961536756538084 0.06833054176696507
H 1.9184671299570175 -6.315789604653581 -0.32254145403139045
C -4.803473307682335 4.414722727939809 -14.26312965017829
O -4.677287353340113 4.564732443189566 -13.082285694544254
O -4.929659262024558 4.264713012690054 -15.443973605812321
O 7.941272750841154 -13.764369510650626 -8.937506581125612
H 7.963643127210322 -13.483403148642044 -8.010400963312428
H 7.1025175768951385 -14.243075912126413 -9.016827975874392
O -3.689425513681096 15.913352352427726 7.588512443366381
H -3.4505129189876564 16.04234945752849 8.518699454602546
H -2.8358549217807214 15.849252978718962 7.134342365936141
O -19.29471021085798 -1.7470000297574022 -1.019875936091334
H -19.5682380639969 -1.2219937239230223 -1.78702536696602
H -18.67514590617841 -2.394576677361034 -1.3883138577896386
O 2.2562186725772087 -9.811205612991662 -5.181860013974323
H 1.9730429635868552 -10.286541242524613 -4.38635079716139
H 1.5138756327059335 -9.918538974594439 -5.795348648703379
O -2.3826589293084193 10.132185279036197 -2.722059768113141
H -2.430066400210249 10.490896522298792 -3.620973630816178
H -2.5003086212807757 9.17814721989166 -2.844255823624492
O 4.345424688329606 5.749083207376323 11.352172392807917
H 4.081436378430275 5.698857561497897 10.421175661539438
H 3.583964501014175 5.388892351267303 11.831132594295472
O -8.954170022921337 -7.681704331069856 -1.46443251373492
H -8.390154892031903 -7.021852041216265 -1.0337943307985373
H -9.854961327346803 -7.388843534513718 -1.2600565757873048
O -5.430448347065042 3.9504476688018215 8.80224661374742
H -5.477332747737181 3.954926544877277 9.77010463512386
H -5.969024711959901 4.711519144031569 8.538300306578227
O -5.405561542255973 8.643726376280327 -16.213508264042986
H -5.428080778104508 8.598365639065406 -15.245829265388927
H -5.803704155868253 7.806811623382159 -16.496382971126142
O 3.0012140085611203 2.5927347064190585 -16.063338363083947
H 3.5038828701764766 3.3746940068382196 -15.789785763114033
H 2.2642277023058694 2.9561155754543442 -16.57692133857223
O 9.97487291251731 8.186061432490614 -5.029102645528587
H 10.298363054155825 8.488346803167389 -4.167160048926295
H 10.678333721072049 8.439914622327436 -5.645270961118722
O 21.277160429755806 -3.1746904430666065 2.283017620120309
H 20.517527853682196 -2.803629719925386 2.756557107396384
H 20.909137036508504 -3.936537473452459 1.810672588797864
O 7.784965077831568 -9.729491731305417 -5.989685095009601
H 7.678283288131567 -10.047249737634836 -5.080500734134449
H 8.542037261441292 -9.126747744275033 -5.939651714121256
O -9.481663032379062 -1.6924480040901753 -14.765482406969028
H -9.454355691432045 -1.5370093952075068 -15.721547522376461
H -10.214887132125419 -1.1379711344496266 -14.459051721683174
O -11.22834391641129 -4.789213339745535 8.787322684669322
H -10.602433291610604 -4.455237311671426 9.447370606667002
H -10.90274185323494 -4.424819206962434 7.9505657565542585
O 3.828519623304789 0.4219363043129589 13.856443701964704
H 3.845279687321602 -0.4600839030545876 14.257351186241891
H 4.082913160520853 1.0131579803612714 14.58080742433995
O 13.249929295223371 5.401395232550535 -8.234568681074904
H 14.058468859351912 5.520134594845027 -7.713865220378964
H 13.212878097304966 6.192439445984112 -8.792993434668494
O 9.119370545835219 -1.6764730465729452 4.364645513117715
H 9.851789120551967 -1.2963799895975905 4.8726412378526955
H 8.670322515249177 -0.9047302303327238 3.988173952294845
O 2.107670332620977 -0.7248786953623374 8.481049549592527
H 1.453144114862622 -0.582866479363424 9.18133186243073
H 1.7483905465512697 -1.4668984494168829 7.9718475619544815
O -3.040690104331812 -0.3055238221545027 -15.663912145443078
H -2.5029328881018458 -0.6122898291035144 -14.918473247696818
H -3.629599239041977 0.35613965805516035 -15.271038865221886