194

C -5.0710522388059704 1.0783507462686561 0.47044029850746183
C -3.8153522388059704 0.1782507462686569 0.19534029850746193
C -4.11845223880597 -1.3219492537313435 0.5608402985074619
C -2.96945223880597 -2.3874492537313436 0.7034402985074619
C -2.52015223880597 0.7359507462686565 0.7384402985074618
C -2.20305223880597 0.7852507462686571 2.097440298507462
C -1.5755522388059702 1.205650746268656 -0.18965970149253808
C -0.9533522388059701 1.2695507462686564 2.508640298507462
H -2.91125223880597 0.4298507462686567 2.840840298507462
C -0.32655223880597006 1.6562507462686575 0.21554029850746192
H -1.7850522388059702 1.178550746268657 -1.2573597014925382
C 0.004447761194029898 1.6956507462686563 1.569740298507462
H -0.7158522388059702 1.2676507462686573 3.5705402985074617
H 0.3943477611940298 1.9193507462686572 -0.5551597014925382
C -1.76045223880597 -2.1592492537313435 -0.1734597014925381
C -0.5287522388059701 -1.936549253731343 0.464840298507462
C -1.8068522388059702 -2.121249253731343 -1.5681597014925381
C 0.6114477611940299 -1.614449253731343 -0.2582597014925381
H -0.4544522388059702 -1.954049253731343 1.5506402985074619
C -0.6479522388059701 -1.8270492537313432 -2.2998597014925384
H -2.74345223880597 -2.290549253731343 -2.092259701492538
C 0.5698477611940298 -1.5506492537313434 -1.6506597014925382
H 1.5072477611940298 -1.351949253731343 0.2991402985074618
H -0.7173522388059701 -1.7640492537313435 -3.3840597014925375
C 1.7791477611940298 -1.082849253731343 -2.4255597014925376
H 1.4739477611940297 -0.9102492537313429 -3.464259701492538
H 2.1252477611940295 -0.1337492537313434 -2.0010597014925384
C 1.3965477611940298 2.0964507462686566 1.997440298507462
H 1.51704776119403 1.8448507462686567 3.057640298507462
H 2.1256477611940294 1.5207507462686571 1.4165402985074618
C 3.94864776119403 -1.4275492537313434 -3.522959701492538
H 4.81734776119403 -2.087049253731343 -3.615159701492538
H 3.4305477611940303 -1.3641492537313429 -4.484459701492538
H 4.26984776119403 -0.441449253731343 -3.176459701492538
C 2.60904776119403 -3.4296492537313434 -2.8992597014925376
H 1.9825477611940296 -3.869549253731343 -2.119359701492538
H 2.06294776119403 -3.373349253731343 -3.845759701492538
H 3.5215477611940305 -4.019849253731343 -3.0234597014925377
C 3.7281477611940304 -2.060049253731343 -1.156659701492538
H 3.9048477611940298 -1.032549253731343 -0.8295597014925382
H 3.12924776119403 -2.623249253731343 -0.4404597014925382
H 4.68244776119403 -2.5769492537313434 -1.3005597014925383
C 3.1110477611940297 3.755250746268656 2.588740298507462
H 3.40124776119403 4.809350746268656 2.534540298507462
H 2.9823477611940303 3.461750746268656 3.634840298507462
H 3.86514776119403 3.1392507462686563 2.091540298507462
C 1.99744776119403 3.9574507462686572 0.40494029850746194
H 2.67914776119403 3.230350746268657 -0.04295970149253803
H 1.03214776119403 3.981150746268657 -0.10175970149253821
H 2.4399477611940297 4.958250746268657 0.368240298507462
C 0.7418477611940297 4.4992507462686575 2.475440298507462
H -0.18475223880597014 4.424250746268656 1.901240298507462
H 0.57844776119403 4.189650746268656 3.511940298507462
H 1.1210477611940297 5.524350746268658 2.4432402985074617
N 3.00114776119403 -2.025349253731343 -2.490159701492538
N 1.7831477611940298 3.586450746268657 1.862540298507462
C -3.55075223880597 -3.8435492537313434 0.6444402985074619
H -2.62515223880597 -2.2736492537313433 1.7424402985074618
H -4.67195223880597 -1.3478492537313436 1.5102402985074619
H -4.83415223880597 -1.6757492537313432 -0.1945597014925382
H -3.7169522388059697 0.17335074626865676 -0.900559701492538
H -3.9132522388059705 -4.043149253731343 -0.34225970149253815
H -4.35435223880597 -3.9354492537313432 1.3449402985074619
H -2.78115223880597 -4.545049253731343 0.8904402985074619
H -5.24235223880597 1.138950746268657 1.5249402985074618
H -5.92805223880597 0.6501507462686567 -0.006059701492538094
H -4.89895223880597 2.059650746268657 0.08004029850746197
C 2.853034402413221 -1.0505696884485318 3.0723940512312287
O 2.888474810463135 -0.9137646098469726 1.8592148202245002
O 3.1920585647411412 -0.1933278197450201 3.896305733391133
O 2.4726554380371644 -2.067440711649451 3.6639458664042652
O 7.2727628598248915 -0.40738273131416514 -3.7888280305335127
H 7.634819572695063 0.37582675278900757 -4.229810113589601
H 7.878014145853845 -1.1200364553526914 -4.04330296972069
O 9.571491476980698 -1.27694165239952 2.5528132989111203
H 9.280241453662477 -1.3413284405775237 3.474765099346077
H 9.299198417116312 -2.120728662699976 2.161863282799203
O 0.6578365781635636 -5.6547112278073755 0.5754390641215079
H 0.7919753283387447 -5.205268130407218 -0.27248490346095977
H 0.3276275110565251 -6.530962089876988 0.3262236090980304
O -1.7022592539015866 -0.9023720207905326 8.266371008605406
H -1.76882377784088 -0.8141745405920638 7.3036884412243515
H -2.2631860547596387 -0.18899829953193947 8.606107674564228
O -4.20762600652816 1.2663211105162555 5.324496757211886
H -3.4259786718982377 1.6459464513738185 4.895685141528824
H -3.843339492826252 0.6054634846743885 5.932382008391382
O 5.732275531628032 2.838795333727071 2.8323599875991063
H 5.919758069726054 3.0727861507168828 1.9109122395565137
H 6.460254504656469 3.241790441725377 3.3289518744215716
O 0.9834175601944529 5.145268415006839 5.969384752480386
H 1.5694473615860058 5.671235219326273 5.404676553907902
H 0.1986046418335214 5.7034497123263215 6.076456068884623
O 9.03023758184434 -0.12474012149462466 6.046742974597707
H 8.228084587023119 0.32815727506150294 6.347412025203232
H 8.899866386178218 -0.22227769266312647 5.091519588236624
O -5.60849431191391 -1.5451868681107777 -4.3995901982448045
H -6.30022794834758 -1.1269778131189412 -4.933980616805139
H -4.843679867912526 -1.581358747003752 -4.993486153546912
O 6.736790511755698 -9.954279047786969 -1.351673181462715
H 5.890264680922628 -9.638647357447901 -1.702013031731112
H 7.108602593662223 -9.179231303163029 -0.9044386640094295
O -4.917803843029335 6.070719562500036 -9.550749403665122
H -5.574427471602694 5.807000741402195 -10.212765378319755
H -4.880332204902065 7.035766689639794 -9.629754865725399
O 2.460274646673935 4.369421553089767 8.445220863757156
H 2.299763552455195 4.39705273846823 9.400438149576086
H 2.9537659418148863 5.184109592276183 8.26714311465105
O 9.29197695559833 -3.8658780799071226 -4.808617515589522
H 9.040056644909619 -3.8386334780109976 -3.873330797181724
H 9.10739292825476 -4.779302544497579 -5.07422329232878
O 6.614351833425079 -8.16280822346529 2.7825821126976296
H 6.510049413049227 -7.89076994118524 1.8584157126495326
H 5.835610593087134 -7.792739760949471 3.2248188795410173
O -3.6775133698944407 5.490154467080654 -0.3661113106962979
H -3.8036297370419945 5.434395488048066 -1.32525309119319
H -2.758108189673198 5.213878318721953 -0.23447716341519176
O 5.831150099848914 2.6040914163511752 -0.4007508265276351
H 6.505498698839141 3.187095967550987 -0.7806547844172902
H 5.958901662252753 1.7639204785560467 -0.866319594689581
O -10.022695570727475 1.022022096296726 -1.0419512854154296
H -9.954107919699071 0.6536210329690624 -0.14833853507809613
H -10.42885401031813 0.3096803580145471 -1.5582520835461402
O 4.464627489192901 -3.510755771951633 -9.007777756422271
H 4.530522334271704 -3.930198295226604 -8.136747793699536
H 3.633008767991949 -3.852026806161967 -9.369587551835691
O -0.15489385305361258 -3.431352235271233 -6.9364525910893216
H -0.259564814098721 -3.72787899019408 -6.019892047301395
H -0.14141500685862196 -2.4647513114804758 -6.8696475079585815
O 2.6936527221750195 -1.6151484708429737 -7.590729120409349
H 2.7304620246747175 -1.6636397491447412 -6.6236401751317455
H 2.2110687790604486 -0.793278977084843 -7.765672589500783
C 18.306409345484173 9.38031048805302 3.8581280465132597
O 18.840748058447442 9.402022299381688 4.929029066392121
O 17.7720706325209 9.358598676724352 2.7872270266343993
O 12.743169559512191 0.38056917293606274 -15.891968668652844
H 12.959332441267845 0.49519381439203247 -14.954364190729352
H 13.551448500256893 0.6505601205173828 -16.35321912824369
O 13.095406246416033 6.489284313653316 -10.57567503698363
H 12.9586643283684 6.21951405711083 -9.655081199597317
H 13.926661339701827 6.98673133188928 -10.552797575704538
O 2.776697973368821 8.266086672549228 2.689699667851036
H 3.5773516276233805 8.625635714893022 3.1003644569168642
H 2.7669464799302257 7.338206660987078 2.9688153012704843
O 11.287537413679583 -2.155536244405754 -10.263575763372195
H 11.21931417490427 -2.131667863430458 -11.22987967363057
H 10.822048718357372 -1.355709915675119 -9.976243094334198
O 15.347961004342551 2.705765959095027 16.99096078508886
H 15.53321207737715 3.4392115216578 17.596524162115998
H 15.951219439805758 2.0049729948782016 17.280668267986144
O -10.321296071888966 -2.7251980498491535 1.6792561256358525
H -10.375340376494984 -3.012664895610729 0.7554545329615685
H -10.600496191339605 -1.7976787247605923 1.652476671085582
O 13.501153867822428 -4.074197523754405 -8.823277750254046
H 13.478785403244743 -3.302947853359187 -8.237068781875275
H 12.569275997838535 -4.321417852480967 -8.920476972466027
O 16.347227104192815 -9.399382137297797 0.16280742500100231
H 16.97259038848637 -9.252443443847874 -0.5626559716805986
H 15.690181489092232 -8.695910694782128 0.05153778160254774
O 7.901593686375255 -15.516326936090316 -5.4092088556864955
H 7.783915787814225 -15.430272115933443 -4.451235037141318
H 7.008665106559182 -15.397534058579229 -5.766320529956999
O 2.7170187916124533 -2.4864550248046613 15.452186094928216
H 2.999715618024098 -2.1962624791694667 14.571937182577537
H 3.461462401476417 -3.0166583734632533 15.774133396677936
O 7.409607112597659 -12.924643859165533 4.432884880901071
H 7.050705219303275 -13.277064381583834 3.6046599336384797
H 6.713414606689798 -12.333657339164727 4.756941777440966
O -4.3891395403259885 11.438492140383154 -14.090700590575718
H -4.541337604724109 10.532043223529431 -14.397544960294596
H -5.075527962421283 11.577227236772814 -13.420935369514421
O 16.881050405705896 3.989517837422606 2.506399032120551
H 16.126671646018664 3.426262686034585 2.7357975462125412
H 17.6487967524099 3.408553125147557 2.6159777459012004
O 3.942731619909617 10.968400942469698 -1.567688198773109
H 4.036032794779988 11.92240557321097 -1.4257818486966625
H 4.02136346309487 10.865821977585158 -2.528030082427313
O -9.156157909405486 10.329867034512102 3.8184391493526912
H -9.209866920970265 10.513804497626273 4.7683074079232455
H -10.081760570068043 10.298337265422008 3.533434706342556
O 3.5277189224446737 9.193360315088718 13.974335886587077
H 4.1364241577502545 9.16472330011671 14.727744948641067
H 2.7363546532837635 8.735419992979642 14.295264537819799
O -15.01033145535728 5.949088908774048 14.901631529437458
H -14.247406046105977 5.3524264453253325 14.871530341254143
H -14.892958992847056 6.518399875615947 14.12634405218929
O 0.7305308104300767 -15.958391737573127 -0.2558046816380468
H 0.9099180466935981 -15.261951069804411 -0.9052336405270087
H -0.16478630966730545 -16.25751447855888 -0.4746534526780062
O 6.876955749470214 16.645791646442103 -2.558569567755517
H 6.81363726947175 16.263925987498347 -1.6702358773496342
H 7.683331977018673 16.253021254576325 -2.925244823558693
O -10.020151432935311 -2.774253921612126 15.58196645450894
H -10.567118024230922 -3.4905353110306576 15.937966280462714
H -9.165499040854245 -3.1965777378151055 15.408260302407577