194

C -5.0710522388059704 1.0783507462686561 0.47044029850746183
C -3.8153522388059704 0.1782507462686569 0.19534029850746193
C -4.11845223880597 -1.3219492537313435 0.5608402985074619
C -2.96945223880597 -2.3874492537313436 0.7034402985074619
C -2.52015223880597 0.7359507462686565 0.7384402985074618
C -2.20305223880597 0.7852507462686571 2.097440298507462
C -1.5755522388059702 1.205650746268656 -0.18965970149253808
C -0.9533522388059701 1.2695507462686564 2.508640298507462
H -2.91125223880597 0.4298507462686567 2.840840298507462
C -0.32655223880597006 1.6562507462686575 0.21554029850746192
H -1.7850522388059702 1.178550746268657 -1.2573597014925382
C 0.004447761194029898 1.6956507462686563 1.569740298507462
H -0.7158522388059702 1.2676507462686573 3.5705402985074617
H 0.3943477611940298 1.9193507462686572 -0.5551597014925382
C -1.76045223880597 -2.1592492537313435 -0.1734597014925381
C -0.5287522388059701 -1.936549253731343 0.464840298507462
C -1.8068522388059702 -2.121249253731343 -1.5681597014925381
C 0.6114477611940299 -1.614449253731343 -0.2582597014925381
H -0.4544522388059702 -1.954049253731343 1.5506402985074619
C -0.6479522388059701 -1.8270492537313432 -2.2998597014925384
H -2.74345223880597 -2.290549253731343 -2.092259701492538
C 0.5698477611940298 -1.5506492537313434 -1.6506597014925382
H 1.5072477611940298 -1.351949253731343 0.2991402985074618
H -0.7173522388059701 -1.7640492537313435 -3.3840597014925375
C 1.7791477611940298 -1.082849253731343 -2.4255597014925376
H 1.4739477611940297 -0.9102492537313429 -3.464259701492538
H 2.1252477611940295 -0.1337492537313434 -2.0010597014925384
C 1.3965477611940298 2.0964507462686566 1.997440298507462
H 1.51704776119403 1.8448507462686567 3.057640298507462
H 2.1256477611940294 1.5207507462686571 1.4165402985074618
C 3.94864776119403 -1.4275492537313434 -3.522959701492538
H 4.81734776119403 -2.087049253731343 -3.615159701492538
H 3.4305477611940303 -1.3641492537313429 -4.484459701492538
H 4.26984776119403 -0.441449253731343 -3.176459701492538
C 2.60904776119403 -3.4296492537313434 -2.8992597014925376
H 1.9825477611940296 -3.869549253731343 -2.119359701492538
H 2.06294776119403 -3.373349253731343 -3.845759701492538
H 3.5215477611940305 -4.019849253731343 -3.0234597014925377
C 3.7281477611940304 -2.060049253731343 -1.156659701492538
H 3.9048477611940298 -1.032549253731343 -0.8295597014925382
H 3.12924776119403 -2.623249253731343 -0.4404597014925382
H 4.68244776119403 -2.5769492537313434 -1.3005597014925383
C 3.1110477611940297 3.755250746268656 2.588740298507462
H 3.40124776119403 4.809350746268656 2.534540298507462
H 2.9823477611940303 3.461750746268656 3.634840298507462
H 3.86514776119403 3.1392507462686563 2.091540298507462
C 1.99744776119403 3.9574507462686572 0.40494029850746194
H 2.67914776119403 3.230350746268657 -0.04295970149253803
H 1.03214776119403 3.981150746268657 -0.10175970149253821
H 2.4399477611940297 4.958250746268657 0.368240298507462
C 0.7418477611940297 4.4992507462686575 2.475440298507462
H -0.18475223880597014 4.424250746268656 1.901240298507462
H 0.57844776119403 4.189650746268656 3.511940298507462
H 1.1210477611940297 5.524350746268658 2.4432402985074617
N 3.00114776119403 -2.025349253731343 -2.490159701492538
N 1.7831477611940298 3.586450746268657 1.862540298507462
C -3.55075223880597 -3.8435492537313434 0.6444402985074619
H -2.62515223880597 -2.2736492537313433 1.7424402985074618
H -4.67195223880597 -1.3478492537313436 1.5102402985074619
H -4.83415223880597 -1.6757492537313432 -0.1945597014925382
H -3.7169522388059697 0.17335074626865676 -0.900559701492538
H -3.9132522388059705 -4.043149253731343 -0.34225970149253815
H -4.35435223880597 -3.9354492537313432 1.3449402985074619
H -2.78115223880597 -4.545049253731343 0.8904402985074619
H -5.24235223880597 1.138950746268657 1.5249402985074618
H -5.92805223880597 0.6501507462686567 -0.006059701492538094
H -4.89895223880597 2.059650746268657 0.08004029850746197
C 0.12158723638053504 2.536825729658288 -3.897284816250191
O -0.6440856656157596 1.7950120073594873 -3.301270632561774
O 0.3139213365260538 3.7280350451892144 -3.6277306943867806
O 0.822598155360807 2.211109750166878 -4.862241383446035
O 1.4282880568800977 -3.332220032694043 -7.532528638971818
H 0.5211445330162771 -3.462044068480889 -7.847494833576806
H 1.460313744102769 -3.8277494366801696 -6.700430742421737
O -0.041335384739525916 6.558107222047171 -2.3947955793231364
H -0.08386822001105154 6.75172559927296 -1.4462860965955155
H 0.7125499761977961 7.080853783344936 -2.7068129498584383
O 7.675077773106409 -8.843999423703227 -0.6990041871233996
H 7.482656490450884 -9.360651443656096 0.09787227579906999
H 6.926280148455033 -9.030219916506073 -1.2851662719401522
O 3.652261000200858 -9.818403099433857 -3.9413062530186465
H 4.558139857700021 -10.130381665201519 -4.086289793248445
H 3.1284890324012995 -10.632487353831046 -3.8978126122196755
O -7.1827318269549565 -3.6570925106404326 -0.26662586891951223
H -7.109643963623629 -4.273398146257225 -1.0107984864220938
H -7.4508535189853555 -4.218192524998006 0.47650230067889987
O -10.053681405053961 -0.7224406435576283 2.7034757638120874
H -10.688374608537892 -0.35721656745136254 3.338096334376602
H -10.492344951832036 -1.5173392097506546 2.364842471750673
O 8.578704401105744 -2.7519378059641246 -6.25841731275025
H 9.055652713187403 -2.079840337654436 -6.76809628778666
H 8.777755692887311 -2.5312335206742143 -5.336121185687603
O 0.5536274402276655 -9.851423738465881 8.254950744811403
H 0.8156415805151012 -9.683758247286002 9.172667602157308
H 0.8480642903062554 -9.06026328593347 7.779204989218661
O -5.390313947811774 9.0446068538849 -2.737224972972064
H -5.525722116690693 8.211783828464107 -3.213709802772358
H -4.621473326571113 8.869680372938221 -2.1739783398761485
O 0.613420733461654 -5.681668054589734 -1.8664925942861312
H -0.317705750218926 -5.703100784850651 -2.1339088734506624
H 0.8866148905144827 -6.610918619799573 -1.895133193256629
O 2.077334222193087 6.202988249731506 -5.884432353221742
H 1.6717994449581708 7.074523344523455 -6.006643154295196
H 1.711114112496459 5.890257425010907 -5.043573145730164
O -4.802547015628074 7.626722313148585 -6.754729730895814
H -4.749319526035915 7.592613307804743 -5.787790866744531
H -3.97175054469345 8.048983327200697 -7.0201252926414055
O -7.890738865769758 2.8842178663794984 -1.5685998857151788
H -7.0033747582455135 2.646643487723594 -1.8770001324465384
H -7.798420326704442 2.933152117147549 -0.605249134043383
O 7.146184855816437 -3.889145731509738 7.335887515192498
H 7.274932566611224 -3.8543483265807827 8.295669013490581
H 8.046971394396754 -3.9148518142477844 6.9796786529743375
O -6.487328783845421 2.7168981287872436 5.794550999982154
H -5.7827464183161466 3.0860605201653355 5.241152250546287
H -7.143736917984143 3.4280507130161224 5.843051594629114
O -1.9535660674759208 3.153903952760813 -5.560180539042251
H -2.7520076296620637 3.6984722690929983 -5.490153561948549
H -1.3384546811562794 3.7045343207362147 -6.067532610668258
O 1.8590349498349639 2.164902672512691 7.32604647522459
H 2.0760114426654837 2.2526514602517103 8.266359566013664
H 1.2087419945270368 1.4469207103654103 7.301902767803763
O -4.341129401260705 4.130325703677858 8.078664282315424
H -4.338702694119087 4.006530576081916 9.03972423589582
H -3.5326999917708397 3.6851762568445032 7.7832902750706685
O 4.520163042867736 -5.269304159711145 9.922861711975429
H 4.976916180604353 -6.115537635514574 10.042163147412737
H 3.6845649526730755 -5.385084064612023 10.399655996320554
O 7.3265463460297955 4.268440677559754 4.553253522293165
H 7.601584401243054 5.181155201310719 4.727246692327393
H 7.141710447959398 3.9078495100545823 5.433464658897199
C 20.13075955179576 2.2902014684531355 -2.550979635684877
O 19.560004259943952 2.1712953287881316 -1.5055524578895376
O 20.701514843647562 2.4091076081181395 -3.5964068134802165
O 7.50726146282832 -9.954815826320914 -5.193447025763127
H 7.30392729645931 -9.715206377883298 -4.276817391774326
H 7.2643126283334265 -10.891159025331085 -5.250008689325746
O -19.387332140728624 -0.461997842345129 -3.9294455005827844
H -19.149954026632695 -0.6843082438394728 -4.842241793977803
H -19.70163983876577 0.45289383151140505 -3.985533292147264
O -2.4366543210920417 5.318599360573649 4.695766324877495
H -2.648222988477284 6.262639118619795 4.750492836816473
H -2.274254427228341 5.061413230779088 5.615789973168316
O -5.471421980344992 -2.722510427483087 7.310832827744136
H -5.48437916051605 -2.6830045223812586 6.342721908559716
H -5.51111490515722 -1.7935253187530147 7.583547117391058
O -13.739070561980906 -14.412709454566317 0.9166593812001116
H -14.506498594834481 -14.429572581721505 0.32527354586666135
H -13.737004229435115 -15.29258868707788 1.3225783518884437
O -1.1727121676392063 -12.561519390321351 3.6737122362939836
H -1.2399670561091058 -12.69312530633363 2.716046313465218
H -0.48503914943649606 -13.186620316938004 3.948150928680785
O -8.511223969338294 -8.51514642038311 -5.67015280215996
H -7.7362157660468975 -8.936975963667905 -6.070639353923164
H -8.19395902893964 -8.216213870365161 -4.80473716072886
O 2.343610162692236 -8.006879678600175 -1.5217557954732184
H 2.284403909012264 -8.091794194340654 -2.4852138907953467
H 3.1556812141973825 -8.484078844425007 -1.2941958962303814
O -9.050598988074716 11.492928068856129 12.566410274131758
H -9.06815520285146 11.406068629700211 13.531353056918508
H -9.702242857897616 10.844000761271342 12.26109803937365
O 9.04704616009014 -7.170521956310268 -17.82548967446846
H 9.356661350442558 -8.064666341628087 -18.0343236013282
H 9.529700657167249 -6.938343432352234 -17.017962762369606
O 11.54281159296162 3.4569764636191875 7.104157403193682
H 11.439394108670722 4.232226234188504 6.532090996143622
H 11.977627405028631 3.8069296185164543 7.896262158421142
O 16.920582023595344 3.804384709503787 1.3125874376667
H 17.155529278236507 3.7292058495845426 2.2496654938913796
H 15.983242456616313 4.0497336366586385 1.3252517347072124
O 1.2835467507844533 -4.0906012323863585 10.536360888820246
H 1.2642035502218185 -4.166477394299765 9.57052653162162
H 0.40818648876753416 -4.400657682084711 10.81307618290809
O -10.467829038585684 -6.762362483248547 12.236433862884205
H -10.496276296846506 -6.7196970591780305 13.204079341345365
H -10.66052909115689 -7.690900949554242 12.037323464788775
O 2.256527018338958 -18.46853763003724 -0.6748692021785958
H 1.4576486787838183 -18.99355722506067 -0.5163915055425834
H 1.9175201532798916 -17.607383343021496 -0.9620095575750902
O -8.872307892647008 -4.231551732125427 -11.453652143009423
H -8.899637281102367 -3.8608719941416068 -12.348535930590193
H -8.147376149971135 -3.753055495581947 -11.024143977342405
O 0.08487047221523669 -2.352933281107388 23.320994835717897
H 0.41753459239410873 -1.6683386560220583 22.72130146461072
H -0.2981910654120643 -3.0171234959176534 22.728477189363886
O 21.00667809893372 9.821189615865078 3.9381215395558096
H 20.753091319205893 9.031573627422038 3.436955207044938
H 20.665464475953755 10.555681284029808 3.4060903401046154
O 7.71695571693537 2.9132403796616293 18.300361829842196
H 8.62464489550177 2.878285871820993 18.637772402283364
H 7.195085052377335 3.2062304355659164 19.062444358781786
O 2.2750842485867073 12.806681882206622 8.992397287696484
H 2.143434658610582 13.667191701238043 8.56676999333012
H 2.2658296991038895 12.177300230585587 8.255678186398947