194

C -5.0710522388059704 1.0783507462686561 0.47044029850746183
C -3.8153522388059704 0.1782507462686569 0.19534029850746193
C -4.11845223880597 -1.3219492537313435 0.5608402985074619
C -2.96945223880597 -2.3874492537313436 0.7034402985074619
C -2.52015223880597 0.7359507462686565 0.7384402985074618
C -2.20305223880597 0.7852507462686571 2.097440298507462
C -1.5755522388059702 1.205650746268656 -0.18965970149253808
C -0.9533522388059701 1.2695507462686564 2.508640298507462
H -2.91125223880597 0.4298507462686567 2.840840298507462
C -0.32655223880597006 1.6562507462686575 0.21554029850746192
H -1.7850522388059702 1.178550746268657 -1.2573597014925382
C 0.004447761194029898 1.6956507462686563 1.569740298507462
H -0.7158522388059702 1.2676507462686573 3.5705402985074617
H 0.3943477611940298 1.9193507462686572 -0.5551597014925382
C -1.76045223880597 -2.1592492537313435 -0.1734597014925381
C -0.5287522388059701 -1.936549253731343 0.464840298507462
C -1.8068522388059702 -2.121249253731343 -1.5681597014925381
C 0.6114477611940299 -1.614449253731343 -0.2582597014925381
H -0.4544522388059702 -1.954049253731343 1.5506402985074619
C -0.6479522388059701 -1.8270492537313432 -2.2998597014925384
H -2.74345223880597 -2.290549253731343 -2.092259701492538
C 0.5698477611940298 -1.5506492537313434 -1.6506597014925382
H 1.5072477611940298 -1.351949253731343 0.2991402985074618
H -0.7173522388059701 -1.7640492537313435 -3.3840597014925375
C 1.7791477611940298 -1.082849253731343 -2.4255597014925376
H 1.4739477611940297 -0.9102492537313429 -3.464259701492538
H 2.1252477611940295 -0.1337492537313434 -2.0010597014925384
C 1.3965477611940298 2.0964507462686566 1.997440298507462
H 1.51704776119403 1.8448507462686567 3.057640298507462
H 2.1256477611940294 1.5207507462686571 1.4165402985074618
C 3.94864776119403 -1.4275492537313434 -3.522959701492538
H 4.81734776119403 -2.087049253731343 -3.615159701492538
H 3.4305477611940303 -1.3641492537313429 -4.484459701492538
H 4.26984776119403 -0.441449253731343 -3.176459701492538
C 2.60904776119403 -3.4296492537313434 -2.8992597014925376
H 1.9825477611940296 -3.869549253731343 -2.119359701492538
H 2.06294776119403 -3.373349253731343 -3.845759701492538
H 3.5215477611940305 -4.019849253731343 -3.0234597014925377
C 3.7281477611940304 -2.060049253731343 -1.156659701492538
H 3.9048477611940298 -1.032549253731343 -0.8295597014925382
H 3.12924776119403 -2.623249253731343 -0.4404597014925382
H 4.68244776119403 -2.5769492537313434 -1.3005597014925383
C 3.1110477611940297 3.755250746268656 2.588740298507462
H 3.40124776119403 4.809350746268656 2.534540298507462
H 2.9823477611940303 3.461750746268656 3.634840298507462
H 3.86514776119403 3.1392507462686563 2.091540298507462
C 1.99744776119403 3.9574507462686572 0.40494029850746194
H 2.67914776119403 3.230350746268657 -0.04295970149253803
H 1.03214776119403 3.981150746268657 -0.10175970149253821
H 2.4399477611940297 4.958250746268657 0.368240298507462
C 0.7418477611940297 4.4992507462686575 2.475440298507462
H -0.18475223880597014 4.424250746268656 1.901240298507462
H 0.57844776119403 4.189650746268656 3.511940298507462
H 1.1210477611940297 5.524350746268658 2.4432402985074617
N 3.00114776119403 -2.025349253731343 -2.490159701492538
N 1.7831477611940298 3.586450746268657 1.862540298507462
C -3.55075223880597 -3.8435492537313434 0.6444402985074619
H -2.62515223880597 -2.2736492537313433 1.7424402985074618
H -4.67195223880597 -1.3478492537313436 1.5102402985074619
H -4.83415223880597 -1.6757492537313432 -0.1945597014925382
H -3.7169522388059697 0.17335074626865676 -0.900559701492538
H -3.9132522388059705 -4.043149253731343 -0.34225970149253815
H -4.35435223880597 -3.9354492537313432 1.3449402985074619
H -2.78115223880597 -4.545049253731343 0.8904402985074619
H -5.24235223880597 1.138950746268657 1.5249402985074618
H -5.92805223880597 0.6501507462686567 -0.006059701492538094
H -4.89895223880597 2.059650746268657 0.08004029850746197
C -0.26735734791181165 3.3651226912644763 -2.8310009712000705
O -0.484423588048416 3.9233428164254054 -3.895448263393665
O -0.479436721495448 3.852379759403012 -1.7146523012275523
O 0.19798671512798494 2.2265562835483137 -2.7054230168691924
O 7.331490358547667 1.7934856729469557 -7.576094623667772
H 6.373825847319923 1.9249019077806917 -7.5084498599602085
H 7.489314787725072 0.9687939391399993 -7.092424345435481
O 2.992638680578188 -7.161711437419226 -0.7547899252708272
H 2.8067417983012977 -7.523556994921922 0.12468577000181469
H 2.4496862761167852 -6.36026042877764 -0.7976957702918248
O 3.7277569249034883 0.23061360813375176 -9.005526663622847
H 2.7847436709315625 0.3355665442596525 -8.80885881944939
H 4.148950065824058 0.9619945206956793 -8.529459186177112
O -1.8637806075921621 1.4008254409080512 -9.28564634696185
H -2.8095432525091857 1.56196597810061 -9.421786361846715
H -1.8125975262583338 1.058345916064611 -8.380632528532438
O -1.1942642567198956 5.916149928293654 -5.822048413377951
H -0.6936922935721223 6.653482845709829 -5.441607569743965
H -1.9069590903035956 5.762994684502192 -5.18363515397439
O -1.0152916903381488 -5.475314238790075 -10.293543360767988
H -1.539217524277972 -5.237635732578465 -11.073272804303038
H -0.5662899128826622 -4.650970947821833 -10.053090690212095
O -4.83072950558987 5.960819626636798 -4.142194262204045
H -3.9030846190903112 5.6915704987518545 -4.219312538795389
H -5.020801454606127 6.390980727085662 -4.989422700205145
O -0.10604971164056876 -4.18437944501119 3.5847036514622177
H -0.07206081007395682 -4.819498400325166 2.8536523372091205
H -0.12571996253337225 -4.741019797227379 4.377626436993351
O 0.3475109139303427 -1.2915876091582799 -7.862903774213816
H 1.008709091663988 -1.4818020903931979 -8.545254694041905
H -0.49090388841681687 -1.2722297495388262 -8.348339492693746
O 1.310235575463758 -8.303818151349592 -4.058313894063719
H 1.2818798322871903 -8.250450997480051 -3.0911969127130816
H 0.646601291271385 -7.659818225035014 -4.3478230926244805
O -8.297222484212513 -2.116032997287566 3.7911741653274564
H -8.294102770111252 -2.0655795079729278 4.758858034005604
H -8.263086630250708 -1.189839917200163 3.5083967507899656
O -5.982414757819216 4.02732082100853 8.04804233877671
H -5.436031113009254 3.43217425740458 8.583049663413107
H -5.3692028051321605 4.726345763709577 7.775467257627454
O 4.125857770552442 -10.350410009822813 -4.713905150620116
H 3.7873058718488646 -10.260756768937512 -3.8104051422178107
H 4.02791031711655 -11.294720353167598 -4.907931479033241
O -8.440245876018029 -2.4295798147151713 -7.168554686471581
H -8.321342147586753 -2.199722779379414 -8.102361413568682
H -7.625435625680427 -2.1194960393492854 -6.7455957611613195
O -4.8485579798224725 -6.420541679138655 1.6213044787210678
H -5.2463589345178585 -6.086758185317714 2.4394183684675537
H -5.421531928258116 -7.159432065992917 1.3669350722893463
O 2.8319915796930837 -1.1048436012045184 5.138367035619002
H 3.553712870868461 -0.7906864640568871 4.573220127334659
H 2.4616886519432057 -0.2937015984583977 5.51769056162402
O 2.7229270399845795 3.4293240312627002 -4.244256099738728
H 1.7615547351390544 3.3319454583302317 -4.171812591336388
H 3.042218054175677 2.5215434623069664 -4.3580525460067205
O 6.522546340562939 -4.096979791953806 2.736969851772016
H 6.805547864081354 -4.287519421926135 1.8300122210106526
H 7.304395292824362 -4.29749710352783 3.2731293130396892
O -1.8994854371232455 7.307934359391702 -8.225296060910107
H -1.8318897368908187 7.301908134471004 -9.191920012001376
H -1.4505845018230774 8.126083499483828 -7.964371015824068
O -3.4119748681769617 -6.778746022517565 4.779608213836731
H -3.0058247496192023 -7.016596848560279 5.626624401784942
H -3.029040988243602 -5.913354066625401 4.571232710054934
C -2.0822267514872257 -23.205895433393593 -4.376156863024144
O -2.4702428938428502 -22.461850774692262 -5.229772277850682
O -1.6942106091316012 -23.949940092094923 -3.5225414481976065
O 5.879067470884044 -13.882915329715328 -1.1096001249967085
H 5.625189157065401 -13.922477734549357 -2.0439169742487984
H 5.364619014262679 -14.59289166199914 -0.69700063714351
O 16.362953869408415 -9.360818944059213 -9.751798510059505
H 16.574390508849945 -9.177220689478636 -8.824138235327077
H 15.72213042066009 -10.086262962428492 -9.70665177101295
O 15.278804665441767 0.34859097172851516 4.384295893262912
H 15.53578563393955 0.2839403947793775 5.3163626514031685
H 14.449662468659444 0.8496738977752529 4.404322451614836
O 10.74230614038321 2.88086321327253 21.830237533049033
H 9.808158531114678 2.843307242713669 21.57543339243653
H 10.961032333620736 1.9636888782890294 22.05364755059389
O 0.7747678033569088 -14.424563669958687 -6.997425426457499
H 0.8511956238674507 -14.381915870628877 -7.962468073372306
H 1.224973525110621 -15.250051718951628 -6.7632326994780945
O 16.936661815679994 5.055078581414859 3.0211121396464486
H 16.83247971494252 5.677215349801264 2.2855448155981
H 17.609829038999766 4.432571907890043 2.7075945561443184
O 15.953147038397173 1.5007457088810252 -1.3711163475549464
H 15.827790753476691 1.7721050155561713 -0.4493694813212059
H 15.073993003505187 1.6006920823710313 -1.7661617242641712
O -3.91511634411462 -1.9632121026898561 -10.935591451854647
H -3.8416156755904405 -1.3672565389237739 -10.175064019974146
H -3.5096281867818604 -1.4665836508504166 -11.662159741409349
O 6.671385549896718 -8.025562842987165 1.345848201397213
H 5.778998394530241 -8.043481250309293 0.9686328086625501
H 7.084082019930056 -7.25158891004995 0.9340133812863833
O 11.838421391803484 5.958057375978775 8.866247763547573
H 12.172245411000455 6.445584864409547 8.098233552004867
H 11.27764719950179 5.2685606596795065 8.480127927536902
O -10.625929356619945 9.661389349567209 -10.018379075188237
H -10.062891887562627 9.547594712700466 -10.798768046123818
H -10.27231869993089 10.454437524420138 -9.588267415106376
O 12.280400794577876 -5.8490717475830305 -4.635235430856584
H 12.400307629780617 -4.888630939052594 -4.588941143076488
H 12.16574030325512 -6.115467316064699 -3.7106553547555716
O 8.421353855847457 1.14999718899151 15.28332938803669
H 8.624361603244807 1.4983292947025786 14.402182433478286
H 7.464021157822693 1.273136870382293 15.368843529905758
O -20.647651689383007 4.007026725752648 -7.241303843208589
H -20.54946560083107 4.194726309275198 -6.29573749690584
H -20.300695275180786 4.801154658077997 -7.674828949799432
O -20.706388837704168 4.204789886372133 -1.9327859331133035
H -19.951228767056882 4.687846073402128 -2.300695357798283
H -20.806969887658273 4.571371185353429 -1.0414590862567108
O -8.04386860666194 17.906802142707157 -6.247688079922678
H -8.136284233248961 17.448424857646767 -5.39897318468212
H -8.824572721744572 17.6289942869581 -6.749968702958404
O 11.326024793622427 -5.4185741710777835 2.597823668013257
H 12.07522724401224 -5.623403595791373 2.0184205682619707
H 10.849882896396107 -4.718718295082527 2.126174867696081
O 4.662593738218825 18.26007082363048 -2.6490988338740364
H 5.148257977094937 17.464241123005976 -2.3849914852810774
H 4.1883628067500425 18.522249661651237 -1.8457749733841755
O -11.225412600545194 -16.264767048039683 -7.335297969669319
H -10.316350693498212 -16.147728560714803 -7.020852746234756
H -11.464165267777371 -15.395201168805965 -7.690001070673537
O -1.2418370025340568 15.88777368782393 11.048816509183439
H -1.8124669340284632 15.809498456528084 10.269572114690755
H -1.6524860382421283 15.299006900199373 11.699725860446955