194

C -5.0710522388059704 1.0783507462686561 0.47044029850746183
C -3.8153522388059704 0.1782507462686569 0.19534029850746193
C -4.11845223880597 -1.3219492537313435 0.5608402985074619
C -2.96945223880597 -2.3874492537313436 0.7034402985074619
C -2.52015223880597 0.7359507462686565 0.7384402985074618
C -2.20305223880597 0.7852507462686571 2.097440298507462
C -1.5755522388059702 1.205650746268656 -0.18965970149253808
C -0.9533522388059701 1.2695507462686564 2.508640298507462
H -2.91125223880597 0.4298507462686567 2.840840298507462
C -0.32655223880597006 1.6562507462686575 0.21554029850746192
H -1.7850522388059702 1.178550746268657 -1.2573597014925382
C 0.004447761194029898 1.6956507462686563 1.569740298507462
H -0.7158522388059702 1.2676507462686573 3.5705402985074617
H 0.3943477611940298 1.9193507462686572 -0.5551597014925382
C -1.76045223880597 -2.1592492537313435 -0.1734597014925381
C -0.5287522388059701 -1.936549253731343 0.464840298507462
C -1.8068522388059702 -2.121249253731343 -1.5681597014925381
C 0.6114477611940299 -1.614449253731343 -0.2582597014925381
H -0.4544522388059702 -1.954049253731343 1.5506402985074619
C -0.6479522388059701 -1.8270492537313432 -2.2998597014925384
H -2.74345223880597 -2.290549253731343 -2.092259701492538
C 0.5698477611940298 -1.5506492537313434 -1.6506597014925382
H 1.5072477611940298 -1.351949253731343 0.2991402985074618
H -0.7173522388059701 -1.7640492537313435 -3.3840597014925375
C 1.7791477611940298 -1.082849253731343 -2.4255597014925376
H 1.4739477611940297 -0.9102492537313429 -3.464259701492538
H 2.1252477611940295 -0.1337492537313434 -2.0010597014925384
C 1.3965477611940298 2.0964507462686566 1.997440298507462
H 1.51704776119403 1.8448507462686567 3.057640298507462
H 2.1256477611940294 1.5207507462686571 1.4165402985074618
C 3.94864776119403 -1.4275492537313434 -3.522959701492538
H 4.81734776119403 -2.087049253731343 -3.615159701492538
H 3.4305477611940303 -1.3641492537313429 -4.484459701492538
H 4.26984776119403 -0.441449253731343 -3.176459701492538
C 2.60904776119403 -3.4296492537313434 -2.8992597014925376
H 1.9825477611940296 -3.869549253731343 -2.119359701492538
H 2.06294776119403 -3.373349253731343 -3.845759701492538
H 3.5215477611940305 -4.019849253731343 -3.0234597014925377
C 3.7281477611940304 -2.060049253731343 -1.156659701492538
H 3.9048477611940298 -1.032549253731343 -0.8295597014925382
H 3.12924776119403 -2.623249253731343 -0.4404597014925382
H 4.68244776119403 -2.5769492537313434 -1.3005597014925383
C 3.1110477611940297 3.755250746268656 2.588740298507462
H 3.40124776119403 4.809350746268656 2.534540298507462
H 2.9823477611940303 3.461750746268656 3.634840298507462
H 3.86514776119403 3.1392507462686563 2.091540298507462
C 1.99744776119403 3.9574507462686572 0.40494029850746194
H 2.67914776119403 3.230350746268657 -0.04295970149253803
H 1.03214776119403 3.981150746268657 -0.10175970149253821
H 2.4399477611940297 4.958250746268657 0.368240298507462
C 0.7418477611940297 4.4992507462686575 2.475440298507462
H -0.18475223880597014 4.424250746268656 1.901240298507462
H 0.57844776119403 4.189650746268656 3.511940298507462
H 1.1210477611940297 5.524350746268658 2.4432402985074617
N 3.00114776119403 -2.025349253731343 -2.490159701492538
N 1.7831477611940298 3.586450746268657 1.862540298507462
C -3.55075223880597 -3.8435492537313434 0.6444402985074619
H -2.62515223880597 -2.2736492537313433 1.7424402985074618
H -4.67195223880597 -1.3478492537313436 1.5102402985074619
H -4.83415223880597 -1.6757492537313432 -0.1945597014925382
H -3.7169522388059697 0.17335074626865676 -0.900559701492538
H -3.9132522388059705 -4.043149253731343 -0.34225970149253815
H -4.35435223880597 -3.9354492537313432 1.3449402985074619
H -2.78115223880597 -4.545049253731343 0.8904402985074619
H -5.24235223880597 1.138950746268657 1.5249402985074618
H -5.92805223880597 0.6501507462686567 -0.006059701492538094
H -4.89895223880597 2.059650746268657 0.08004029850746197
C -0.7340347662614684 3.5800914502385246 -2.1247824235741732
O -1.2248757006518272 2.669302374948266 -2.7738694254920317
O -0.8885993788256803 3.7534571493332987 -0.9104160953929876
O -0.006780054496311028 4.469385115726686 -2.5818445037536697
O -5.636403503956834 -7.085359046899215 -2.8813250771854397
H -4.985199827510538 -6.3864047464820555 -3.0436950701373053
H -6.180323269740221 -6.735460298005085 -2.1597406412304587
O -3.4348945488411866 -0.7849207345941621 7.188922753935834
H -2.749241837627333 -1.175471182512795 7.751344361038234
H -4.247791882994129 -1.2347070464638452 7.46433542989994
O -1.56015190663084 2.8918217823319674 9.720653833844938
H -1.1330597418301274 3.7553540097198197 9.82492143153672
H -1.0068338876185545 2.2923702274289597 10.243586857721501
O -4.395219443489787 -0.39498651458597756 -5.792787168555018
H -3.5967130009864143 -0.28176385351574773 -6.32994212496963
H -4.337753403384405 0.3147196024986175 -5.135537728914852
O -5.869905606278438 8.892678945131717 3.8056888341231727
H -6.028793196641126 8.159287093258362 3.1926158514086262
H -5.652683798470745 9.638782957632408 3.2268059158718883
O 2.903364842513911 -9.238049418311718 1.6686962034462143
H 2.1364291715984396 -9.361137714560869 2.2480288409731517
H 3.643288487145172 -9.116757815833243 2.2825066722261087
O -5.069567311865737 2.503981402352107 -5.337743832723861
H -4.68067934611756 3.3755837146439083 -5.505204025617074
H -5.847175730829692 2.479731093685367 -5.915410703494504
O 2.6821786093136564 -6.403689349037324 -5.199424850764166
H 2.6776432228520277 -6.445912780632156 -4.2313525554297735
H 2.615195152076701 -7.330425863241101 -5.474442293843722
O 1.6334988348867192 10.682758900576673 -0.1228358466329258
H 0.6923226762794575 10.629176980614378 -0.347076282822373
H 2.0713102727759853 10.806088399764324 -0.9784484480966107
O -6.85649018568053 3.604341343855743 3.5897127035390817
H -6.561015784295398 3.456605869851357 2.678759101676287
H -7.238282584220448 4.494748710211944 3.570445356660254
O -6.440235666146293 0.5136284366352689 6.667915357157832
H -6.478972428088736 1.468914918497445 6.510135264162543
H -6.955795725557095 0.1350776280457614 5.940001176256979
O -0.7451490899121589 -5.695090709148053 3.8130931623844515
H -1.3630805242823296 -5.316911376706541 3.169580542592642
H -0.8835584687684439 -5.163100837072771 4.611085370462915
O -0.8757566614732251 6.361715443998488 -2.0362936173648496
H -0.7090252330016569 7.065077258627338 -2.6816231032725097
H -0.33007707000767583 6.608750637416225 -1.274605137098113
O -1.5996534093156454 1.513962178933557 -7.829735562209921
H -1.9009821479729265 2.4349153202523848 -7.826039665269161
H -0.7407176357008717 1.550523552426753 -8.276786506815881
O -0.1073021421630358 9.94728124421254 3.2874985802991716
H -0.087045612252731 9.898962766401059 2.3199127419375425
H -0.3521872580611367 10.866722579810686 3.4708584851450013
O -2.5158601974062558 -5.616589786086466 -5.462321068793062
H -2.5088630648069024 -5.185249260032763 -4.594643854836685
H -1.8342543351410998 -5.144547922828542 -5.963870540089523
O -3.551317658650054 -7.092362561218174 1.2729287768379673
H -2.885088567117151 -7.151178900288097 1.9741040707222117
H -4.389458139426625 -7.012156529172454 1.7525635036948741
O 5.110514127161196 -7.411632521623728 -1.4702766872734512
H 4.821580378996199 -8.010673894720451 -2.1749993840767528
H 6.064503123704623 -7.568872967100647 -1.4059153550911319
O -10.26706992817515 -0.5769304842006147 -0.4187892743842529
H -9.680962041029028 -1.1958220500331187 -0.8796776895852638
H -9.670950230223735 -0.07442824482091392 0.15661905839577844
O 2.151488367995233 -6.921771925216483 1.0261656953487417
H 2.342049843415862 -5.982102538387934 1.1664337403296778
H 2.0972064724499124 -7.285926942644764 1.9224951790754647
C 9.53341853442195 -7.039111830874399 -0.7515555069215671
O 9.717857975842795 -7.326208695766169 0.39577868149856466
O 9.348979093001102 -6.752014965982629 -1.898889695341699
O 14.71518829347725 3.8219423985106147 7.5720592491929235
H 13.875194035079852 3.3518800262960697 7.460621513270841
H 14.484554709789192 4.75149733695002 7.424757820828793
O 10.577221881979362 12.911071831175246 -13.417440127669206
H 11.174597779928973 12.390062773822597 -12.860072245920179
H 9.727910939093402 12.869687563493729 -12.952767975520374
O 10.281223829007034 15.68197136575961 9.964327146275258
H 11.08303929840229 15.628347825208705 9.4228626268123
H 10.549155628290563 15.307694453930422 10.817023627154764
O 14.959261392066594 -12.04451809707393 7.608424753503767
H 14.772122372327123 -11.943617843040553 6.663033044778252
H 15.282199119041778 -11.171462072836754 7.877583344931345
O 9.585272236356555 -0.9520337687008484 5.623596655299577
H 9.391810016929291 -1.123164436253985 4.689651249412758
H 9.996961937967658 -0.07484307961989112 5.620429815070791
O 2.6476953278407707 -17.848576361847936 5.45424630810934
H 2.0733885953060804 -17.076581590856556 5.339515286030319
H 2.8843693606418923 -18.100818780306355 4.5490827268557075
O 6.784989914779294 13.165092312095664 -1.9246803423739274
H 7.592355092477836 13.544812558399608 -2.3027562094782406
H 7.108741588845032 12.56469357852977 -1.2364448023354166
O 13.584255970718369 -3.7943767080362685 13.488676236118405
H 12.654233070263878 -3.9151638022639315 13.244882800197216
H 13.916944957605844 -4.6979442772530975 13.597513868228706
O -15.205025345887917 -7.811183525583065 10.416433217623503
H -15.326004916947952 -7.6776462968426324 9.464330750014865
H -14.673085397678815 -8.619092941652848 10.473741255672968
O 12.831059540933412 0.6044785686303662 -14.260585362006218
H 13.555992034419955 0.0014134909420846498 -14.483638604215813
H 12.032596933850957 0.0767705286174003 -14.41205692335278
O -4.5910534231029985 -4.866381004461574 -11.045281762013783
H -5.12268907814116 -5.334452155163316 -10.384040289423854
H -5.11467348969968 -4.934864759936544 -11.85774341981268
O -12.464233090240057 1.2430865576626609 -2.501139893255528
H -12.321357692385575 1.3374353011297107 -1.5473829576612892
H -12.474161367306163 2.155349861893558 -2.827696224335209
O 10.369827160515669 7.823742602216296 4.686652804003632
H 9.806680830111823 7.8119471395862226 3.898176783750622
H 11.26736061284504 7.91085327905102 4.33195944879224
O -5.04432469254287 16.49462093708338 9.203613059813925
H -4.871924519350553 16.546617576816615 10.155737992078441
H -5.127981073304842 15.54453520026387 9.032438742377165
O 7.007231901493702 -10.272091738495314 8.465943373970186
H 7.390759410416059 -10.809375514522575 7.75657735362688
H 7.191434909032395 -9.360268238968683 8.194633399909689
O 5.839008263066239 -9.891548385300768 -7.739732846061878
H 5.077963781162824 -10.105962619400437 -8.299916021174997
H 6.017242114363426 -10.71535825229654 -7.261682700583207
O -5.325890801361183 6.733511236153517 -5.95545730859927
H -5.312182787164632 6.403839755096262 -5.044361176555948
H -5.617821385755104 7.653265665428504 -5.867194813594503
O -11.67540911592645 3.092506035466233 -6.891191953960086
H -10.750385197909088 2.9713705268782817 -6.629229558653156
H -12.137110255347302 2.3526808871483653 -6.468755269859459
O -4.130588625839031 -20.532168797813505 -0.3490752719599497
H -3.3068501828381627 -20.088220971763405 -0.6007350863282737
H -4.823740875606463 -19.975217676743835 -0.7341822073448938
O -7.327781091268502 14.283358170661348 0.25804740590430786
H -6.713932033847138 14.127482659480451 0.9914364681468519
H -7.814519516013304 13.449221206857708 0.17890717723776284