194

C -5.0710522388059704 1.0783507462686561 0.47044029850746183
C -3.8153522388059704 0.1782507462686569 0.19534029850746193
C -4.11845223880597 -1.3219492537313435 0.5608402985074619
C -2.96945223880597 -2.3874492537313436 0.7034402985074619
C -2.52015223880597 0.7359507462686565 0.7384402985074618
C -2.20305223880597 0.7852507462686571 2.097440298507462
C -1.5755522388059702 1.205650746268656 -0.18965970149253808
C -0.9533522388059701 1.2695507462686564 2.508640298507462
H -2.91125223880597 0.4298507462686567 2.840840298507462
C -0.32655223880597006 1.6562507462686575 0.21554029850746192
H -1.7850522388059702 1.178550746268657 -1.2573597014925382
C 0.004447761194029898 1.6956507462686563 1.569740298507462
H -0.7158522388059702 1.2676507462686573 3.5705402985074617
H 0.3943477611940298 1.9193507462686572 -0.5551597014925382
C -1.76045223880597 -2.1592492537313435 -0.1734597014925381
C -0.5287522388059701 -1.936549253731343 0.464840298507462
C -1.8068522388059702 -2.121249253731343 -1.5681597014925381
C 0.6114477611940299 -1.614449253731343 -0.2582597014925381
H -0.4544522388059702 -1.954049253731343 1.5506402985074619
C -0.6479522388059701 -1.8270492537313432 -2.2998597014925384
H -2.74345223880597 -2.290549253731343 -2.092259701492538
C 0.5698477611940298 -1.5506492537313434 -1.6506597014925382
H 1.5072477611940298 -1.351949253731343 0.2991402985074618
H -0.7173522388059701 -1.7640492537313435 -3.3840597014925375
C 1.7791477611940298 -1.082849253731343 -2.4255597014925376
H 1.4739477611940297 -0.9102492537313429 -3.464259701492538
H 2.1252477611940295 -0.1337492537313434 -2.0010597014925384
C 1.3965477611940298 2.0964507462686566 1.997440298507462
H 1.51704776119403 1.8448507462686567 3.057640298507462
H 2.1256477611940294 1.5207507462686571 1.4165402985074618
C 3.94864776119403 -1.4275492537313434 -3.522959701492538
H 4.81734776119403 -2.087049253731343 -3.615159701492538
H 3.4305477611940303 -1.3641492537313429 -4.484459701492538
H 4.26984776119403 -0.441449253731343 -3.176459701492538
C 2.60904776119403 -3.4296492537313434 -2.8992597014925376
H 1.9825477611940296 -3.869549253731343 -2.119359701492538
H 2.06294776119403 -3.373349253731343 -3.845759701492538
H 3.5215477611940305 -4.019849253731343 -3.0234597014925377
C 3.7281477611940304 -2.060049253731343 -1.156659701492538
H 3.9048477611940298 -1.032549253731343 -0.8295597014925382
H 3.12924776119403 -2.623249253731343 -0.4404597014925382
H 4.68244776119403 -2.5769492537313434 -1.3005597014925383
C 3.1110477611940297 3.755250746268656 2.588740298507462
H 3.40124776119403 4.809350746268656 2.534540298507462
H 2.9823477611940303 3.461750746268656 3.634840298507462
H 3.86514776119403 3.1392507462686563 2.091540298507462
C 1.99744776119403 3.9574507462686572 0.40494029850746194
H 2.67914776119403 3.230350746268657 -0.04295970149253803
H 1.03214776119403 3.981150746268657 -0.10175970149253821
H 2.4399477611940297 4.958250746268657 0.368240298507462
C 0.7418477611940297 4.4992507462686575 2.475440298507462
H -0.18475223880597014 4.424250746268656 1.901240298507462
H 0.57844776119403 4.189650746268656 3.511940298507462
H 1.1210477611940297 5.524350746268658 2.4432402985074617
N 3.00114776119403 -2.025349253731343 -2.490159701492538
N 1.7831477611940298 3.586450746268657 1.862540298507462
C -3.55075223880597 -3.8435492537313434 0.6444402985074619
H -2.62515223880597 -2.2736492537313433 1.7424402985074618
H -4.67195223880597 -1.3478492537313436 1.5102402985074619
H -4.83415223880597 -1.6757492537313432 -0.1945597014925382
H -3.7169522388059697 0.17335074626865676 -0.900559701492538
H -3.9132522388059705 -4.043149253731343 -0.34225970149253815
H -4.35435223880597 -3.9354492537313432 1.3449402985074619
H -2.78115223880597 -4.545049253731343 0.8904402985074619
H -5.24235223880597 1.138950746268657 1.5249402985074618
H -5.92805223880597 0.6501507462686567 -0.006059701492538094
H -4.89895223880597 2.059650746268657 0.08004029850746197
C 0.9016618340849532 2.207933979755459 -3.4697479239387157
O -0.17565327678260956 1.7746775429703454 -3.0909913920073477
O 1.5085556287893274 1.826764499705649 -4.477230535961317
O 1.5517153229196368 3.094610112864025 -2.9041647903239514
O -5.944750606933332 5.024221396599703 1.4561081905636788
H -4.979047508453786 5.018299479609354 1.3764224742390714
H -6.220485106333497 5.772134382319979 0.90514667109837
O 7.251266396860498 -2.004980873613515 -4.703182485103415
H 7.722068685773131 -1.9801821983586292 -5.549762420703255
H 6.6529599044280125 -1.2439406925406662 -4.74571633286895
O -1.4429420487200788 9.123798524678609 2.1492983836015798
H -0.8533016103428803 9.79395207997459 1.772223162121167
H -0.858775763358567 8.581327929724871 2.7001498599157205
O -4.299576583721418 10.489740220898408 5.010830548131899
H -4.463488211248908 9.547584130709222 5.167170680473912
H -3.6008910078136087 10.497507438423872 4.339458757951313
O 6.2426238688631015 5.590799320851837 -5.27768778309603
H 6.3966678768292535 5.416220547531953 -4.337070936332243
H 5.911661610510237 6.501351214222812 -5.2956092039242755
O 3.6982822005224145 2.000874473925146 7.594746534384035
H 2.907745969284309 2.4872909614107606 7.3165041495789715
H 3.353823506341321 1.3093619523719868 8.179657283847785
O -6.1345981870602255 2.843668021119602 -2.8256731502936105
H -5.269951346995173 2.585504649120152 -2.4725373800530495
H -6.7394150274738065 2.717664197677531 -2.0791602097961857
O 4.430602510100998 -3.419126101817502 -6.41165835911439
H 5.388862056438192 -3.354249172576571 -6.5400989399519975
H 4.238460785976426 -4.358205011554628 -6.553694634190041
O 1.280938145339534 -5.455245798431058 -6.836425154749534
H 1.363447913813832 -6.398216952771052 -7.043704910367431
H 2.164623429501205 -5.098728087550077 -7.01237226238217
O 3.3686818218013173 -9.957263019894288 -3.204245218366117
H 4.323861881795187 -9.995123790385454 -3.362879930670598
H 3.1132347297351175 -10.885124610596147 -3.091189497789318
O 7.192887056311652 -0.24193240788693582 0.029143126166995437
H 7.552775706885218 0.5797808309381074 -0.33723764465483086
H 6.2518029491823714 -0.04911933828258297 0.15620912397298614
O -7.585076894069336 -6.705945919121829 -2.1534319873587546
H -8.142031294587188 -6.500784578534949 -1.3874829179211075
H -8.18915512026003 -7.1443774298507154 -2.7713553251137633
O -1.94967338445297 3.5942623463011074 8.151318300121494
H -1.6852915637171866 3.676388398927344 7.222703783088474
H -2.1837074834669337 4.498606868611201 8.408905119983162
O 0.6270257291013697 6.4477952618018985 -6.2559939109284874
H 0.046378809723798486 5.99906155113807 -6.888808709136626
H 1.495132769047717 6.045258654355166 -6.408690967746438
O 3.6124447716928647 -6.353918443495983 6.15993463181076
H 2.9121430270435615 -6.1386443917907165 5.525740729282882
H 3.1420670596465943 -6.779289247050108 6.892578086564732
O 7.394790361469967 -1.6278589844370042 2.5093682046834758
H 7.305596390127905 -1.7861581404050266 1.5575524821846067
H 8.276399606434632 -1.9693102696662348 2.721825502294408
O 8.298285644966215 1.0468308708807053 9.847205287066473
H 8.289858540948654 1.6579310529353624 10.599171315761016
H 8.874822940870352 0.324698052898567 10.138908704812515
O 8.941622721475339 -1.1781179238470938 -2.5487826010896386
H 9.052597923480862 -1.4559450551556146 -3.4704462851679
H 8.898096257158143 -2.01171595961533 -2.056662995742137
O 4.069170324347832 0.23880674227845455 3.0225842741932656
H 4.963392051126832 0.036432818724368765 3.3362395871112978
H 3.911429031496326 -0.41648622571670396 2.3264012846527056
O 11.599804425480906 -1.0308874747538461 -1.945017511909251
H 11.9584453182838 -1.93066009785513 -1.972463707036816
H 10.770589833533727 -1.1243627808656345 -1.4524452106689356
C 4.279263135048788 3.060933995094207 -3.649464357777595
O 4.684618169092236 3.3235672228774877 -2.554234089140095
O 3.8739081010053407 2.798300767310926 -4.744694626415095
O -2.0422000443058757 20.874423748924148 0.4475976013113039
H -1.3423152165130618 21.41243814576956 0.04801144850757044
H -1.6363905361004916 20.000368243832316 0.5491237623180432
O 2.26780993583042 14.39242428833742 -13.624773980366367
H 2.5435627154530707 14.621466413943157 -12.72451431442082
H 2.8774983280272712 13.685103102640952 -13.8834992187668
O -7.8555775092221385 -7.262223038044153 11.130556591007258
H -7.823229751136999 -6.684685909522984 11.907970151878427
H -8.747182578907967 -7.640767569853003 11.157134428544335
O -15.455351317472427 6.34480496298069 -1.633900380036497
H -14.599985377141998 6.050049844456069 -1.980939117249192
H -15.619359188133854 7.1811610406060815 -2.0949555546958587
O -12.089075395062183 -8.70328972535471 11.432452443184783
H -11.933012104048982 -8.740290684492816 10.4768152028467
H -11.34223178889362 -8.187495033969892 11.771778847351001
O 10.804473841848539 4.576729080390628 -4.859549438184764
H 10.33493905489061 4.443074018380175 -5.696592307538155
H 11.489607576753649 5.2266545810612115 -5.076691219454664
O -1.7379877381575 -16.74418944877041 -7.999800193901368
H -1.7017563200236525 -16.778285458360795 -7.03207497289593
H -2.1295481742987743 -17.59466356736863 -8.249472264312601
O -6.998891060753471 15.04124734416067 -16.08159881359632
H -7.128760718200315 15.001908816328987 -17.04105371571662
H -6.408491873334369 15.799315885043523 -15.95620809975112
O 2.0821694482647746 -5.384886581982417 10.158251409792086
H 1.9173790908144746 -4.602194054787734 9.611256068984687
H 2.6582619664620113 -5.9373426971746035 9.608822983549025
O 8.299678665140059 -5.358593157867258 -8.739740932879814
H 8.775703221664156 -5.975537026786817 -8.163765029661107
H 8.189842582164276 -4.565779423485392 -8.193531850428764
O 1.2752151011667623 -12.534334538370176 5.766203454262998
H 1.1550769006515704 -12.40479585676696 4.81344225666652
H 2.1118410590095236 -12.085401053792081 5.959794976257761
O -15.73944137253288 4.709972366050083 10.600553935602736
H -15.705770888603453 5.534107400098627 10.091992138899752
H -14.84305825262544 4.350214973489965 10.522875977703812
O 16.160347246402996 -0.7490025426849121 -6.615760239763663
H 16.774936513164125 -0.8679439647996201 -7.355422546622242
H 15.287539811693602 -0.8934067093903231 -7.011129134410326
O -6.793213011545031 -8.668101672881324 1.5941774843719114
H -6.859896242013402 -7.711203487902599 1.7315331076958909
H -7.6955281471766135 -8.989152801139067 1.7415393293474386
O 14.832482566619957 7.681648260698517 2.317006486784252
H 15.753408441782282 7.517073088256837 2.5695493583373787
H 14.323230620799395 7.088217033443511 2.8892509961476787
O -10.16927556218069 1.2314592452429283 11.68086158998491
H -10.161274403445677 1.3941720797048855 10.725650685597687
H -10.177264823282037 0.2652289015029483 11.753642348727677
O 18.752524296504795 -4.060988616751255 5.601160782694225
H 19.653624549848832 -3.7047050509819326 5.5942534615043
H 18.442291330634013 -3.895432410647773 6.504105185084339
O 21.67091381239819 0.5800380430605134 -8.611255922000565
H 21.722807337510805 0.6021786239411089 -9.57861532451323
H 22.56916124287148 0.8021365757845782 -8.323530810635658
O 2.0558883567753727 -11.763077216958498 -18.78161713668426
H 2.4867085424653474 -11.873074861791913 -17.920651491241216
H 2.4862809603141827 -12.42377699742268 -19.34482220698607
O -1.452765604322122 -11.937229779117189 1.7544463845044778
H -0.5469551291960448 -11.930308854903576 1.4103143737006292
H -1.9784448273051116 -12.29376231530853 1.0226623661896674