194

C -5.0710522388059704 1.0783507462686561 0.47044029850746183
C -3.8153522388059704 0.1782507462686569 0.19534029850746193
C -4.11845223880597 -1.3219492537313435 0.5608402985074619
C -2.96945223880597 -2.3874492537313436 0.7034402985074619
C -2.52015223880597 0.7359507462686565 0.7384402985074618
C -2.20305223880597 0.7852507462686571 2.097440298507462
C -1.5755522388059702 1.205650746268656 -0.18965970149253808
C -0.9533522388059701 1.2695507462686564 2.508640298507462
H -2.91125223880597 0.4298507462686567 2.840840298507462
C -0.32655223880597006 1.6562507462686575 0.21554029850746192
H -1.7850522388059702 1.178550746268657 -1.2573597014925382
C 0.004447761194029898 1.6956507462686563 1.569740298507462
H -0.7158522388059702 1.2676507462686573 3.5705402985074617
H 0.3943477611940298 1.9193507462686572 -0.5551597014925382
C -1.76045223880597 -2.1592492537313435 -0.1734597014925381
C -0.5287522388059701 -1.936549253731343 0.464840298507462
C -1.8068522388059702 -2.121249253731343 -1.5681597014925381
C 0.6114477611940299 -1.614449253731343 -0.2582597014925381
H -0.4544522388059702 -1.954049253731343 1.5506402985074619
C -0.6479522388059701 -1.8270492537313432 -2.2998597014925384
H -2.74345223880597 -2.290549253731343 -2.092259701492538
C 0.5698477611940298 -1.5506492537313434 -1.6506597014925382
H 1.5072477611940298 -1.351949253731343 0.2991402985074618
H -0.7173522388059701 -1.7640492537313435 -3.3840597014925375
C 1.7791477611940298 -1.082849253731343 -2.4255597014925376
H 1.4739477611940297 -0.9102492537313429 -3.464259701492538
H 2.1252477611940295 -0.1337492537313434 -2.0010597014925384
C 1.3965477611940298 2.0964507462686566 1.997440298507462
H 1.51704776119403 1.8448507462686567 3.057640298507462
H 2.1256477611940294 1.5207507462686571 1.4165402985074618
C 3.94864776119403 -1.4275492537313434 -3.522959701492538
H 4.81734776119403 -2.087049253731343 -3.615159701492538
H 3.4305477611940303 -1.3641492537313429 -4.484459701492538
H 4.26984776119403 -0.441449253731343 -3.176459701492538
C 2.60904776119403 -3.4296492537313434 -2.8992597014925376
H 1.9825477611940296 -3.869549253731343 -2.119359701492538
H 2.06294776119403 -3.373349253731343 -3.845759701492538
H 3.5215477611940305 -4.019849253731343 -3.0234597014925377
C 3.7281477611940304 -2.060049253731343 -1.156659701492538
H 3.9048477611940298 -1.032549253731343 -0.8295597014925382
H 3.12924776119403 -2.623249253731343 -0.4404597014925382
H 4.68244776119403 -2.5769492537313434 -1.3005597014925383
C 3.1110477611940297 3.755250746268656 2.588740298507462
H 3.40124776119403 4.809350746268656 2.534540298507462
H 2.9823477611940303 3.461750746268656 3.634840298507462
H 3.86514776119403 3.1392507462686563 2.091540298507462
C 1.99744776119403 3.9574507462686572 0.40494029850746194
H 2.67914776119403 3.230350746268657 -0.04295970149253803
H 1.03214776119403 3.981150746268657 -0.10175970149253821
H 2.4399477611940297 4.958250746268657 0.368240298507462
C 0.7418477611940297 4.4992507462686575 2.475440298507462
H -0.18475223880597014 4.424250746268656 1.901240298507462
H 0.57844776119403 4.189650746268656 3.511940298507462
H 1.1210477611940297 5.524350746268658 2.4432402985074617
N 3.00114776119403 -2.025349253731343 -2.490159701492538
N 1.7831477611940298 3.586450746268657 1.862540298507462
C -3.55075223880597 -3.8435492537313434 0.6444402985074619
H -2.62515223880597 -2.2736492537313433 1.7424402985074618
H -4.67195223880597 -1.3478492537313436 1.5102402985074619
H -4.83415223880597 -1.6757492537313432 -0.1945597014925382
H -3.7169522388059697 0.17335074626865676 -0.900559701492538
H -3.9132522388059705 -4.043149253731343 -0.34225970149253815
H -4.35435223880597 -3.9354492537313432 1.3449402985074619
H -2.78115223880597 -4.545049253731343 0.8904402985074619
H -5.24235223880597 1.138950746268657 1.5249402985074618
H -5.92805223880597 0.6501507462686567 -0.006059701492538094
H -4.89895223880597 2.059650746268657 0.08004029850746197
C 0.8836509673891586 3.9463568123641686 -2.33678541056306
O -0.30649560614492605 3.672943803341493 -2.3128697545561074
O 1.3604529492323036 5.070693317820551 -2.1440193432467893
O 1.7954440362492223 3.1410087465329757 -2.557457739686366
O -4.866521458273329 -0.1899570601202929 -2.721965593975574
H -4.895939405238982 -0.22403472074817352 -3.689922542575282
H -5.252020065734649 -1.0351181720215297 -2.446184044782652
O 6.8625483952022925 -6.232438471667021 3.0184441417782955
H 6.705420701751249 -6.011705329598571 2.088091990792796
H 7.084052180088512 -5.38196299716586 3.426597893265529
O 9.373203109858942 -4.074891986841544 -4.853567441262461
H 8.564855247238727 -3.632720981035745 -5.15361059069604
H 9.208398310329212 -5.012344842278623 -5.035180948978242
O 5.175966517984175 4.391734708072352 5.852280610320268
H 5.375917826952842 3.5600637014393506 5.396967347096179
H 4.298685175237599 4.243385949033874 6.236119164481399
O 10.254922921821725 1.50877685406423 -0.42065792370982
H 10.23417105395096 0.5435697604236616 -0.5037962618325089
H 9.408515343418555 1.7258765395334352 -0.0018215808611454776
O -8.319472456091807 0.19373483238751976 -1.180472935039445
H -8.789078988321773 0.5001919903044639 -0.39020647861578084
H -9.007331678487287 -0.23863555351959698 -1.7085519858036426
O 4.382877234316921 1.143862716179004 -7.385918813441775
H 4.202715713992123 1.2345391963988903 -8.333698829811182
H 3.5252923509063754 1.3124316435498078 -6.967475712446219
O -2.531647444268463 -5.090216535388492 -10.229729956883727
H -3.365701362046636 -5.1105341912670585 -10.722587554977213
H -2.4220119930733692 -4.156853509383947 -9.993561640149903
O 8.718699206237696 4.220862263125785 -3.6548302363924665
H 8.34156553341292 3.4693295368015384 -3.1732327789808434
H 8.01364767412909 4.485775498402405 -4.264490190093363
O -9.217640538947215 -3.1031457640728357 -5.082546023236597
H -9.516677689660678 -4.005882999052491 -5.268582643218955
H -9.46370262562628 -2.9613193875437602 -4.156100842602699
O 4.286559995624927 1.3318205758461839 3.4841482231632845
H 4.503165064070482 0.4067458883214756 3.2936582661451763
H 5.148047615457967 1.7459661315734876 3.6431591782755834
O 7.526066095331428 -1.704826029365799 -6.998106088193483
H 8.139232188619632 -2.4551472952831883 -7.0016693526815095
H 7.364766447763156 -1.5299054984606446 -7.937439455993333
O -8.520287415683363 1.8125544072537985 -5.738168728627948
H -8.657582200476586 1.9960128825598884 -6.679689034732362
H -9.343469869063934 2.1065442245508232 -5.3199551706554615
O 5.225019974918691 6.874385383996603 4.1559343117970915
H 4.3286728641673164 6.541108404765355 4.3123173961194015
H 5.707996521759449 6.101498276505899 3.8267821910741175
O 3.626983931064564 -8.306749525396386 3.886267022405621
H 2.8330355855897054 -8.259869077694733 3.3327188264542404
H 4.128814715258325 -7.514212044595927 3.643342857568251
O 0.9439744524548015 -7.541212270691059 5.0045893476024315
H 0.6159350560780616 -8.183920838190478 4.3578411674058195
H 0.8053935051549606 -6.684279461255241 4.57398114347957
O -1.225169322317917 -3.02423312225781 5.661030439522556
H -1.0273611186775735 -2.8930573876713224 4.721545368790575
H -0.7575336813358968 -3.842381110255632 5.886668914341127
O -2.9713355806212434 -7.023885427803121 -1.8619442833787931
H -3.0828939716202086 -7.517833371066211 -2.68810256823944
H -2.636468132737864 -6.160943714008243 -2.148575292240068
O -7.79849275914766 7.7505091995230275 2.69834566298344
H -7.414688479527888 7.7846274769870005 1.8092463575127629
H -8.500990321083554 7.08715413771688 2.62473057111849
O -1.504239622344369 1.7855465140428457 7.198709487683874
H -1.5107718371193775 1.762132864790865 6.230011140364732
H -2.2293939545194825 1.194824492300908 7.452008978123122
C -7.962936676944229 -8.359746451820971 0.8404039149380025
O -7.799842011346895 -9.5174056926863 1.0973931547765692
O -8.126031342541562 -7.202087210955641 0.5834146750994358
O 21.29876226763518 -0.9722774072543996 -7.33178063820428
H 21.699662573615658 -1.4557211414419187 -8.069702353184663
H 21.137086466997427 -0.08736925577864385 -7.692003407112491
O 3.933331685763447 4.869461562014533 14.104305634420411
H 3.335292256898141 5.371527127689261 13.530505698740583
H 3.345301538145076 4.270160937321679 14.588063064373353
O -11.64010949706342 -1.261589665560491 1.0422638319715638
H -10.940960699700454 -1.9222052926725741 0.925023441059432
H -11.159519409821318 -0.42413504396648705 1.123902481614194
O 2.2059117832083652 10.084648670593998 -9.215860560940595
H 2.2579900020191386 10.782242762657738 -9.886395943111635
H 2.004749915669921 9.285123432188513 -9.725031691800444
O 11.170730113306242 -1.7657048781783597 -7.240512861818654
H 11.27052443975889 -2.1135560318561986 -8.13940552737604
H 10.69683838616454 -2.467367604395381 -6.769282563679462
O -0.2703430109522129 17.417661946390105 5.471450611524139
H -0.6531493140978997 17.791336544660517 6.279407284730926
H -0.3203734197340893 18.14343912041422 4.831367494919206
O 2.159138293482184 3.333931056091844 -5.608888513733324
H 2.240467413484332 2.9002716003215956 -6.47161234414531
H 1.2025535091076012 3.394566363523343 -5.466653306784694
O -16.72172128871067 -2.6319252235659505 -10.208601515889216
H -16.491083799943812 -2.709369155426865 -9.270637687645694
H -17.435646257152126 -3.27613476936932 -10.328046669962859
O 10.50259269531032 5.610650886563445 15.753326255815427
H 9.581865583376251 5.796485004731403 15.515219929199999
H 10.866912874001006 6.480513545426862 15.975973300291326
O 13.861516729535937 13.077712073377567 3.9856273909228395
H 13.0582809016795 13.298400273843468 4.480679186114925
H 14.58012634445609 13.402923891561244 4.548476783707427
O -9.280485261379328 19.56257076306031 -4.733471939660874
H -10.01771986064655 20.04441835668178 -4.329398432654419
H -8.499286016946424 19.896043460941122 -4.267118377901605
O -16.79351162390065 -5.850033447008281 -5.453197914078428
H -16.802595806180573 -4.8828466244328546 -5.51180239145649
H -16.367292256409826 -6.130444909156287 -6.277011246679778
O 7.0392403353386666 -20.121495440752348 1.484049037521391
H 6.082976315056175 -20.08197543010934 1.3325081216869332
H 7.118267341384877 -20.351293153463885 2.422084051712182
O 17.959868632627987 -4.758693813302548 0.402736522587385
H 17.96819273364212 -4.740047617493162 -0.566051578920961
H 18.87270918808354 -4.980482181682212 0.6404211545413158
O 6.251802043139977 -5.345259567597649 19.358678919760365
H 5.772169580439404 -5.552531840764045 20.174741578139134
H 6.980058751753301 -5.984364151133493 19.346454274032876
O -0.9674280197790797 8.579404230021472 6.179903793836961
H -0.4734320887877048 8.742722209031704 6.997377105203135
H -1.2745884416667836 9.458645663870232 5.912417494132955
O -16.565853115319968 5.529524019420942 -3.9398374962598313
H -16.80468303234592 6.3574335142579645 -3.4965616273112907
H -15.610792613178813 5.453438212694655 -3.7948122172058323
O -4.933009999090132 -1.733939008695184 8.246497398672545
H -5.198651244311629 -1.7776801165244498 7.315643596390445
H -4.420344696483406 -0.9137696943598927 8.30530664646515
O 7.1961559428675175 -2.6455830576450285 13.941367750248844
H 7.863702261802152 -3.0031767989321803 13.33682165178399
H 6.936702116574982 -1.8058504294631783 13.533330044284106
O -8.316050995721632 4.099854682609277 15.826589195654943
H -8.01049332516594 4.462639605246747 14.981610517360924
H -8.014966200536287 4.747166445626216 16.481797080122234