194

C -5.0710522388059704 1.0783507462686561 0.47044029850746183
C -3.8153522388059704 0.1782507462686569 0.19534029850746193
C -4.11845223880597 -1.3219492537313435 0.5608402985074619
C -2.96945223880597 -2.3874492537313436 0.7034402985074619
C -2.52015223880597 0.7359507462686565 0.7384402985074618
C -2.20305223880597 0.7852507462686571 2.097440298507462
C -1.5755522388059702 1.205650746268656 -0.18965970149253808
C -0.9533522388059701 1.2695507462686564 2.508640298507462
H -2.91125223880597 0.4298507462686567 2.840840298507462
C -0.32655223880597006 1.6562507462686575 0.21554029850746192
H -1.7850522388059702 1.178550746268657 -1.2573597014925382
C 0.004447761194029898 1.6956507462686563 1.569740298507462
H -0.7158522388059702 1.2676507462686573 3.5705402985074617
H 0.3943477611940298 1.9193507462686572 -0.5551597014925382
C -1.76045223880597 -2.1592492537313435 -0.1734597014925381
C -0.5287522388059701 -1.936549253731343 0.464840298507462
C -1.8068522388059702 -2.121249253731343 -1.5681597014925381
C 0.6114477611940299 -1.614449253731343 -0.2582597014925381
H -0.4544522388059702 -1.954049253731343 1.5506402985074619
C -0.6479522388059701 -1.8270492537313432 -2.2998597014925384
H -2.74345223880597 -2.290549253731343 -2.092259701492538
C 0.5698477611940298 -1.5506492537313434 -1.6506597014925382
H 1.5072477611940298 -1.351949253731343 0.2991402985074618
H -0.7173522388059701 -1.7640492537313435 -3.3840597014925375
C 1.7791477611940298 -1.082849253731343 -2.4255597014925376
H 1.4739477611940297 -0.9102492537313429 -3.464259701492538
H 2.1252477611940295 -0.1337492537313434 -2.0010597014925384
C 1.3965477611940298 2.0964507462686566 1.997440298507462
H 1.51704776119403 1.8448507462686567 3.057640298507462
H 2.1256477611940294 1.5207507462686571 1.4165402985074618
C 3.94864776119403 -1.4275492537313434 -3.522959701492538
H 4.81734776119403 -2.087049253731343 -3.615159701492538
H 3.4305477611940303 -1.3641492537313429 -4.484459701492538
H 4.26984776119403 -0.441449253731343 -3.176459701492538
C 2.60904776119403 -3.4296492537313434 -2.8992597014925376
H 1.9825477611940296 -3.869549253731343 -2.119359701492538
H 2.06294776119403 -3.373349253731343 -3.845759701492538
H 3.5215477611940305 -4.019849253731343 -3.0234597014925377
C 3.7281477611940304 -2.060049253731343 -1.156659701492538
H 3.9048477611940298 -1.032549253731343 -0.8295597014925382
H 3.12924776119403 -2.623249253731343 -0.4404597014925382
H 4.68244776119403 -2.5769492537313434 -1.3005597014925383
C 3.1110477611940297 3.755250746268656 2.588740298507462
H 3.40124776119403 4.809350746268656 2.534540298507462
H 2.9823477611940303 3.461750746268656 3.634840298507462
H 3.86514776119403 3.1392507462686563 2.091540298507462
C 1.99744776119403 3.9574507462686572 0.40494029850746194
H 2.67914776119403 3.230350746268657 -0.04295970149253803
H 1.03214776119403 3.981150746268657 -0.10175970149253821
H 2.4399477611940297 4.958250746268657 0.368240298507462
C 0.7418477611940297 4.4992507462686575 2.475440298507462
H -0.18475223880597014 4.424250746268656 1.901240298507462
H 0.57844776119403 4.189650746268656 3.511940298507462
H 1.1210477611940297 5.524350746268658 2.4432402985074617
N 3.00114776119403 -2.025349253731343 -2.490159701492538
N 1.7831477611940298 3.586450746268657 1.862540298507462
C -3.55075223880597 -3.8435492537313434 0.6444402985074619
H -2.62515223880597 -2.2736492537313433 1.7424402985074618
H -4.67195223880597 -1.3478492537313436 1.5102402985074619
H -4.83415223880597 -1.6757492537313432 -0.1945597014925382
H -3.7169522388059697 0.17335074626865676 -0.900559701492538
H -3.9132522388059705 -4.043149253731343 -0.34225970149253815
H -4.35435223880597 -3.9354492537313432 1.3449402985074619
H -2.78115223880597 -4.545049253731343 0.8904402985074619
H -5.24235223880597 1.138950746268657 1.5249402985074618
H -5.92805223880597 0.6501507462686567 -0.006059701492538094
H -4.89895223880597 2.059650746268657 0.08004029850746197
C 1.1520000591963124 3.7270331078400503 -3.411930136206936
O -0.022396271131191026 3.459555238723956 -3.6144748163306235
O 1.646804663619739 4.858153513855803 -3.478009593197241
O 2.027413679963298 2.9079762305749837 -3.109531047616318
O 2.6963770321765717 -7.272376131645364 -2.405349825604706
H 3.047473866972215 -7.0680202790730515 -3.2850867493585776
H 3.293747892274015 -6.806723109051134 -1.8009681065270204
O -5.547013578550811 5.693356616331552 -4.2970938569329755
H -5.740172719068594 5.792760743817552 -5.24143263235903
H -6.349723935846214 5.2887044976794355 -3.9353277868530996
O 7.536650519314947 -3.9556385439107524 2.7632120457205427
H 7.801871222940169 -3.6655576195395727 1.8775041973955404
H 6.6813344649451025 -3.5228360331560777 2.9049102395045403
O -3.621031844011445 3.301068481501347 -4.759563714081846
H -3.3932095415643113 3.912675749943171 -4.04332289941347
H -2.8146876651592514 3.2570712056584927 -5.295133736814251
O -8.061849449517673 2.161562601392484 -4.892601427006977
H -8.30299387668775 1.9336530171163875 -3.98217628261568
H -8.366685384660629 1.4027318607736912 -5.412421495912992
O 1.2342989333887397 -3.0214255737025777 6.844030376582883
H 1.2394166578433259 -2.956488731852755 7.810841822712364
H 1.4815390228975904 -2.1323544807441506 6.548417666935001
O -2.4824869339352755 -4.375473093839881 7.530468244266201
H -2.3815320046701336 -4.60955463632588 6.595598579219546
H -2.8902976150428676 -3.496728693926157 7.509004966444982
O 5.433703339340631 1.7427492206421822 -0.10691736981109612
H 4.509602111657209 1.648077346886811 -0.38267362851366826
H 5.400805451427902 1.6513084739221418 0.8571979049927843
O 2.377145686306033 -4.561625832071769 -7.599967519945723
H 2.628477051310495 -4.652549510206165 -6.668553118822621
H 2.987618307420908 -3.891740512265672 -7.94280681389759
O 0.0546342847315584 -12.874696633568846 -4.570668058954549
H -0.10909523909154295 -13.143148580805244 -5.487234233299667
H -0.7863019058654688 -13.04909384945708 -4.121921049232373
O 8.883320606089924 -1.0306692324314446 -2.526198875659189
H 9.512660534404441 -1.7615527858130136 -2.6195146992123814
H 9.025041580472212 -0.7138331144829784 -1.6214934075186025
O -2.986467269486412 -4.384085272542042 -8.023868210201202
H -2.2704211553448657 -5.036516222801623 -7.999802166359887
H -3.467482388653168 -4.533841375946269 -7.196124585081581
O 2.1709187837217003 -0.2753647460801738 -6.7575491642861865
H 1.9541280093999644 0.49701509814901623 -6.214043420712601
H 2.1598229361602073 -1.0136706957364017 -6.130059601688444
O -5.654580363954857 4.6853105491808735 5.882015877397393
H -5.899147043162605 5.585133000144029 5.61843656663125
H -6.051516637673455 4.58255286446381 6.759993324225034
O 0.17876668479862998 -2.409864390647247 -6.436903570382858
H 0.3152550579419471 -2.5820182573618022 -7.380673312995917
H 0.07905046366470725 -1.447322532295153 -6.386586670012624
O 2.7429349251883006 6.502198199427462 5.202731147021626
H 3.4057658705708143 7.166802936354805 4.962059091317059
H 2.0840904846029056 7.001204713484289 5.70857543762751
O 3.827691165322246 -3.1157398224587673 3.2115723851362503
H 3.2090695312945092 -3.569259850862492 3.803682353511669
H 4.553488970791151 -2.8453981575120957 3.793890918303778
O -0.4463391238274754 -7.288565248846392 -1.6830080658830617
H -0.4163191169735132 -7.261469580879417 -2.651167133839311
H 0.05570193925737249 -6.505575608148613 -1.411265655066131
O -1.8288913279641181 9.915835163472565 -4.497734356093419
H -2.3865799629662794 9.343249761301776 -3.94992353061592
H -1.8221340287694452 9.478230092196924 -5.362267805302548
O -2.0526420310461764 -7.775692098736149 2.979424647144581
H -2.084234777103466 -7.817488039909731 2.0118388087829526
H -1.3808236271212722 -7.101896045213482 3.162784551990411
C -3.594110879715607 14.07319445193346 4.003444130043423
O -3.2161495000666602 12.98349704304512 3.683251984830738
O -3.972072259364554 15.1628918608218 4.323636275256108
O 5.620817816695027 12.812331574033548 17.11494565748091
H 5.510435462330705 11.862223745649434 16.959774116313678
H 6.567389198077482 12.911330928954483 17.297054668715802
O -10.733835261928194 1.1286103047588356 -15.276321901331166
H -10.759889086812056 1.170911812091647 -14.308593045924706
H -11.172466147196621 1.9453781237764527 -15.558199925671197
O 16.232659327724658 -0.6201444930855438 6.165716782422017
H 16.216562439446413 -0.5033589199002719 5.203911512638395
H 17.17670580102547 -0.6525166862332386 6.3817960309839865
O 10.075670016082668 15.760685879071826 -1.8565485445353733
H 10.70323833740835 15.045324397209725 -1.6738375453138516
H 10.601131776051952 16.414945423642056 -2.3411064166711366
O -13.140605541634121 -15.808152502612355 2.4674437386297523
H -12.511650501544116 -16.035837886388133 3.1685445020441545
H -12.911360295681698 -16.40948526527093 1.743007771782704
O -4.2660177419246335 -18.388921018533544 11.372931660293109
H -3.597186631865833 -18.13021784110522 10.721237737422863
H -4.114208644781311 -19.337454184694167 11.500213925427879
O 12.196281330435193 7.749095735390554 -5.849460528624924
H 12.173521439881691 8.692352092515062 -5.628741727825815
H 12.848360858439792 7.380533808763364 -5.234711523177861
O -13.741422810316461 -9.462646844480508 -1.8389014822447385
H -13.942788140543215 -9.191996433923833 -2.747288908373136
H -13.329029126253541 -10.333647170146916 -1.9401527851203997
O 12.123113258653808 -2.8849166710567027 3.5669032603771456
H 12.364660700861323 -3.7988603558091 3.353996869763293
H 12.63513170384901 -2.354869698315716 2.93773773146762
O 8.21582899857887 4.48845505299917 -16.878344801943545
H 8.183062534557976 3.7684273126384498 -16.230692295697636
H 7.9931097654717 4.058573818493572 -17.717725652168337
O -11.63207614839567 -0.13746046603669448 10.913395465276272
H -11.748751635736898 0.47730693334289276 10.173520318907814
H -12.288752519065879 -0.8304759119732086 10.747661702280272
O -3.9158788635585395 -1.5872288232550886 12.8287776322821
H -3.198388730801511 -1.572691390161654 12.177652506568652
H -4.697194825798869 -1.832343893689374 12.31067926932921
O -5.301808956813842 5.577956164356155 -10.611564366165847
H -6.115782373017074 6.0573747675197325 -10.827370847892238
H -4.872771249138823 6.133877470174018 -9.943851784712775
O -9.904022908190505 5.218338512592932 -10.349058808349266
H -9.253180233004146 5.628830666892691 -9.760104344647182
H -10.172812817585486 5.938491285565259 -10.939053649417989
O -7.302625468479754 -13.750914708791106 -15.328804826925497
H -6.883661764793268 -13.856472234042945 -16.196153880511197
H -7.1768003107016565 -12.812928319511158 -15.120690657548
O 11.648841180358511 2.8028604714371106 9.783397014794172
H 12.08506774313453 2.73065956190455 8.921155301878766
H 12.263753863026619 2.369061285198505 10.39385799062525
O 16.955781080261758 -4.880682975889868 1.27014164449242
H 16.96727152569931 -5.442585968425765 0.4807745856770351
H 16.950912650931393 -5.51101564274158 2.006089313688719
O -5.300539975901056 24.3888991124046 -6.929464688233092
H -5.962073371887189 23.680892716798212 -6.921226564933289
H -5.827836162688036 25.201819989860073 -6.938426981295242
O -6.103272954907416 8.780709445148688 4.6063144010242505
H -5.745725030454063 9.164462154486909 3.791537930638247
H -6.357589703714947 7.881606892000415 4.349605354634718
O -12.850707360790693 8.145151306072046 -3.1008776196141477
H -12.370165112834062 8.516244134305825 -3.856083960730432
H -13.101178319693298 8.921781284605922 -2.578314590412043