194

C -5.0710522388059704 1.0783507462686561 0.47044029850746183
C -3.8153522388059704 0.1782507462686569 0.19534029850746193
C -4.11845223880597 -1.3219492537313435 0.5608402985074619
C -2.96945223880597 -2.3874492537313436 0.7034402985074619
C -2.52015223880597 0.7359507462686565 0.7384402985074618
C -2.20305223880597 0.7852507462686571 2.097440298507462
C -1.5755522388059702 1.205650746268656 -0.18965970149253808
C -0.9533522388059701 1.2695507462686564 2.508640298507462
H -2.91125223880597 0.4298507462686567 2.840840298507462
C -0.32655223880597006 1.6562507462686575 0.21554029850746192
H -1.7850522388059702 1.178550746268657 -1.2573597014925382
C 0.004447761194029898 1.6956507462686563 1.569740298507462
H -0.7158522388059702 1.2676507462686573 3.5705402985074617
H 0.3943477611940298 1.9193507462686572 -0.5551597014925382
C -1.76045223880597 -2.1592492537313435 -0.1734597014925381
C -0.5287522388059701 -1.936549253731343 0.464840298507462
C -1.8068522388059702 -2.121249253731343 -1.5681597014925381
C 0.6114477611940299 -1.614449253731343 -0.2582597014925381
H -0.4544522388059702 -1.954049253731343 1.5506402985074619
C -0.6479522388059701 -1.8270492537313432 -2.2998597014925384
H -2.74345223880597 -2.290549253731343 -2.092259701492538
C 0.5698477611940298 -1.5506492537313434 -1.6506597014925382
H 1.5072477611940298 -1.351949253731343 0.2991402985074618
H -0.7173522388059701 -1.7640492537313435 -3.3840597014925375
C 1.7791477611940298 -1.082849253731343 -2.4255597014925376
H 1.4739477611940297 -0.9102492537313429 -3.464259701492538
H 2.1252477611940295 -0.1337492537313434 -2.0010597014925384
C 1.3965477611940298 2.0964507462686566 1.997440298507462
H 1.51704776119403 1.8448507462686567 3.057640298507462
H 2.1256477611940294 1.5207507462686571 1.4165402985074618
C 3.94864776119403 -1.4275492537313434 -3.522959701492538
H 4.81734776119403 -2.087049253731343 -3.615159701492538
H 3.4305477611940303 -1.3641492537313429 -4.484459701492538
H 4.26984776119403 -0.441449253731343 -3.176459701492538
C 2.60904776119403 -3.4296492537313434 -2.8992597014925376
H 1.9825477611940296 -3.869549253731343 -2.119359701492538
H 2.06294776119403 -3.373349253731343 -3.845759701492538
H 3.5215477611940305 -4.019849253731343 -3.0234597014925377
C 3.7281477611940304 -2.060049253731343 -1.156659701492538
H 3.9048477611940298 -1.032549253731343 -0.8295597014925382
H 3.12924776119403 -2.623249253731343 -0.4404597014925382
H 4.68244776119403 -2.5769492537313434 -1.3005597014925383
C 3.1110477611940297 3.755250746268656 2.588740298507462
H 3.40124776119403 4.809350746268656 2.534540298507462
H 2.9823477611940303 3.461750746268656 3.634840298507462
H 3.86514776119403 3.1392507462686563 2.091540298507462
C 1.99744776119403 3.9574507462686572 0.40494029850746194
H 2.67914776119403 3.230350746268657 -0.04295970149253803
H 1.03214776119403 3.981150746268657 -0.10175970149253821
H 2.4399477611940297 4.958250746268657 0.368240298507462
C 0.7418477611940297 4.4992507462686575 2.475440298507462
H -0.18475223880597014 4.424250746268656 1.901240298507462
H 0.57844776119403 4.189650746268656 3.511940298507462
H 1.1210477611940297 5.524350746268658 2.4432402985074617
N 3.00114776119403 -2.025349253731343 -2.490159701492538
N 1.7831477611940298 3.586450746268657 1.862540298507462
C -3.55075223880597 -3.8435492537313434 0.6444402985074619
H -2.62515223880597 -2.2736492537313433 1.7424402985074618
H -4.67195223880597 -1.3478492537313436 1.5102402985074619
H -4.83415223880597 -1.6757492537313432 -0.1945597014925382
H -3.7169522388059697 0.17335074626865676 -0.900559701492538
H -3.9132522388059705 -4.043149253731343 -0.34225970149253815
H -4.35435223880597 -3.9354492537313432 1.3449402985074619
H -2.78115223880597 -4.545049253731343 0.8904402985074619
H -5.24235223880597 1.138950746268657 1.5249402985074618
H -5.92805223880597 0.6501507462686567 -0.006059701492538094
H -4.89895223880597 2.059650746268657 0.08004029850746197
C 1.1498623566679316 2.3475976678411423 -3.918756043484482
O 0.7322369354805494 1.8280946424948719 -4.9422212909815
O 1.6829775734387946 1.7448887758459184 -2.980053949496594
O 1.1040034954391205 3.556444401366071 -3.663344759291894
O -3.8213710314678053 2.5398121366709345 -7.174509685935954
H -3.063599235296107 3.082063983221473 -6.90859203563938
H -4.232326935494119 2.2841668982490213 -6.335032049951458
O -2.0669587350663896 0.3739362641285684 -6.110431360213459
H -2.5609824528501797 0.45319162615529085 -5.28059612912412
H -2.3802449511329433 -0.46052229694874525 -6.490553184064023
O -6.453451255348776 -0.4097719584741797 5.1517316169934535
H -6.959466148986975 0.4094627263424191 5.26022500623802
H -6.534472495767476 -0.6116105049018665 4.207454801606687
O -7.81002545902957 -5.42047632302133 -0.774728066820578
H -8.144685448312966 -5.78653794385952 -1.607175625662669
H -6.915484011005747 -5.11952376594737 -0.9942391154219723
O 3.3559328005804963 -4.065561770392916 8.253314122970158
H 4.234026199566444 -4.29405345241196 8.593477158594863
H 2.9386920880983145 -4.924152940296636 8.086900977123076
O 7.8481122443416 -4.493620094351304 -1.3366840057278773
H 8.384015259560197 -4.009973712299175 -0.6902619359410371
H 8.457265816286183 -5.155165508464409 -1.6975877812042166
O -5.533929704880583 8.717992924692824 0.5845336058978483
H -4.635745413412047 8.372256327935395 0.6972214096822738
H -5.507274376531853 9.162780877776468 -0.2759401674167614
O 6.216682501370339 1.7845730804565532 -7.380244513630748
H 6.11316881281788 1.4955476931535128 -6.461159861013486
H 6.30774563511151 0.9574983304812157 -7.876849797459333
O 11.657539250387009 -0.703823224110705 5.485341950282878
H 11.81412229851693 -0.7127588544450285 6.441568524086845
H 10.776394092559094 -0.3106509674047153 5.396119017731083
O 5.004938589873472 -3.4008607734719636 11.190115602368286
H 5.262309911112675 -3.706397017194717 10.307293443790819
H 5.790807283119062 -3.5646832323486466 11.732825970100526
O 1.786427769291547 -6.2753519131514475 4.729239439330771
H 1.3496772143137463 -5.95378567187552 5.532240972391733
H 1.4865455694279939 -7.193484591461148 4.651361358172771
O 2.852847333378246 -10.934241871665893 3.1651574369988893
H 2.725170981709473 -11.35643842509483 4.027952995863954
H 3.0297928922552195 -11.674966696893419 2.566008918862218
O 0.5507952380592602 -6.176468615131554 0.22672641811350158
H 0.9902505020264454 -7.039280596611149 0.1892842962880854
H 0.5414209403184504 -5.878369435160714 -0.6952339637590484
O -4.484654745937993 5.163777719022738 -2.971307730316391
H -4.974616045993279 5.393013732189969 -3.7752704978717846
H -4.1957458933447835 6.019872445260273 -2.621171415573757
O 3.031436453107643 -7.439564079983096 7.1947747808558855
H 2.280488933472179 -6.863532572570951 7.40269996480876
H 3.7964966905473574 -6.965538808086133 7.553863654244765
O 5.706698876675964 6.625917269896064 5.242445969845516
H 5.848993001489541 6.111905856689733 6.051465132805931
H 6.36467009656238 6.275201794900046 4.623548180465478
O 1.810630734849973 1.06286949706971 6.7353220356708405
H 2.241740960587103 1.7404327540436808 6.193086512153886
H 0.9768843790175603 1.4755799808715866 7.006429053278633
O 4.5303701351002665 0.5576358812568885 8.096678751988634
H 4.686431440807497 0.6998377364662575 7.150956351843661
H 4.713061798348897 1.4211947285511823 8.496493481256078
O -4.540444690713645 4.4535510983535715 2.4508711597243162
H -4.082496530041076 3.6014424686339046 2.3946419662934595
H -5.393378562316121 4.289679003052881 2.021206533120063
O -3.473020688903061 -5.726084453432469 5.008020461545134
H -2.60344059428192 -5.30187038847366 5.061314392060847
H -4.095273551927758 -5.010001031960354 5.205473879470366
C -13.122912968182362 3.3640694017101205 5.046998344559755
O -13.67977480712696 3.237224063441053 3.9950318955764015
O -12.566051129237765 3.4909147399791878 6.098964793543109
O -26.6252263336414 -2.015742413681444 -1.7312009378941733
H -27.02306217878836 -2.1056914477896846 -2.610179417994339
H -25.715100891112474 -1.737578275105923 -1.913569617146031
O 3.5451192615722555 4.3818056470877975 -19.848965552618186
H 3.809993497023382 3.9053489216974295 -20.65008850518194
H 3.0314697322476123 3.7303458438081583 -19.34823984922817
O 3.8278989570262327 7.172329179067843 -15.815150179660028
H 4.583882437980573 7.0522122274211565 -15.22098837396122
H 4.03842357042352 7.984090760395061 -16.300623625416904
O 6.911189469827404 12.408710153017672 -5.509804346240806
H 6.582432627058622 12.692355167419125 -6.376079014598308
H 6.90400396274333 13.21980996936694 -4.979684170520122
O 13.5524042090647 -13.967400261533918 4.209257444990202
H 13.457049633571156 -13.748091981262533 5.148288189980405
H 12.779997718110765 -14.520530130288286 4.018476142646388
O -7.450853669489347 -9.29227240722544 13.079151524050978
H -8.332446627279284 -9.55524691796516 12.774839808245627
H -7.37854103277137 -8.363529486454976 12.812375561884892
O 6.737789367804211 -14.147489936036349 13.396252004254743
H 6.220421343004293 -14.530737979331729 14.120419540895883
H 7.353986947405415 -13.546523571684851 13.841338418461874
O 6.3734339919428145 7.160315315634629 -3.2378071613898154
H 7.010245357483446 7.6965313884523825 -2.7419130548809942
H 5.597819175971906 7.122441695275639 -2.6581959206194905
O -18.42548698441921 -1.3403759306990555 11.586785572425974
H -18.138318170552484 -0.6823339134196615 10.936030524241755
H -18.982176407318196 -1.9471788061428423 11.076051687623389
O 4.666040636788088 11.724136804566168 15.843289403202764
H 4.116648006908322 12.29122444313214 16.40502484388589
H 5.521938979329133 12.177781363849023 15.818660449336456
O 1.1309027274567045 9.29117515813156 -15.510648428910415
H 1.8308686451478104 9.960176581003115 -15.548755740107616
H 0.3473994232521589 9.787872279013456 -15.230690420080169
O 5.779452452802457 -2.8369522895583024 -15.155097575927272
H 5.7177239868144545 -1.8816736195797161 -15.00476588907878
H 6.3325152923051755 -2.9140102276822724 -15.947022770647878
O 1.4409893952840678 15.252613806354628 12.541329798717125
H 1.561497398306027 15.375979799336987 13.494863232783882
H 0.6172229001480083 14.746943534283632 12.4730049735443
O -16.052211162352574 3.180878946273153 9.413983787167046
H -15.427944758157551 3.200633059381315 10.154840445710875
H -15.566131471881768 2.7251609107177748 8.710414635710453
O 6.065790478610148 9.938951099030383 5.264586885090129
H 6.655612916430364 9.581506181680101 4.583918111159469
H 6.64544812079212 10.491985586598116 5.809666528555866
O -2.0843145105668386 -17.878439347844072 13.249045663360528
H -2.8328124837260322 -18.231990523314156 13.752751636523746
H -2.490773316814355 -17.242978411771333 12.64081660959098
O -5.254362179180191 4.016761830763738 8.020616391622578
H -5.530379888586554 4.814982399122043 7.5456158597872856
H -6.043181509672949 3.45406199976932 8.010874300481044
O 13.336484184536243 15.079959303895446 -5.513747830509629
H 13.39740334758378 15.103528429479965 -4.546948622404468
H 14.12067318589689 15.566248149890402 -5.809607109062602
O 9.354081974125158 15.688353518006444 11.860555318591935
H 9.259712226837038 15.562224419200204 10.904441748909388
H 9.207130276482282 16.637759431797974 11.987028848302874
O -11.634299093028918 8.415967056942263 1.5455316001471973
H -11.664283126500942 8.602256610055488 0.5950767000926896
H -12.360829914258726 8.943200318512963 1.9104151404674752