194

C -5.0710522388059704 1.0783507462686561 0.47044029850746183
C -3.8153522388059704 0.1782507462686569 0.19534029850746193
C -4.11845223880597 -1.3219492537313435 0.5608402985074619
C -2.96945223880597 -2.3874492537313436 0.7034402985074619
C -2.52015223880597 0.7359507462686565 0.7384402985074618
C -2.20305223880597 0.7852507462686571 2.097440298507462
C -1.5755522388059702 1.205650746268656 -0.18965970149253808
C -0.9533522388059701 1.2695507462686564 2.508640298507462
H -2.91125223880597 0.4298507462686567 2.840840298507462
C -0.32655223880597006 1.6562507462686575 0.21554029850746192
H -1.7850522388059702 1.178550746268657 -1.2573597014925382
C 0.004447761194029898 1.6956507462686563 1.569740298507462
H -0.7158522388059702 1.2676507462686573 3.5705402985074617
H 0.3943477611940298 1.9193507462686572 -0.5551597014925382
C -1.76045223880597 -2.1592492537313435 -0.1734597014925381
C -0.5287522388059701 -1.936549253731343 0.464840298507462
C -1.8068522388059702 -2.121249253731343 -1.5681597014925381
C 0.6114477611940299 -1.614449253731343 -0.2582597014925381
H -0.4544522388059702 -1.954049253731343 1.5506402985074619
C -0.6479522388059701 -1.8270492537313432 -2.2998597014925384
H -2.74345223880597 -2.290549253731343 -2.092259701492538
C 0.5698477611940298 -1.5506492537313434 -1.6506597014925382
H 1.5072477611940298 -1.351949253731343 0.2991402985074618
H -0.7173522388059701 -1.7640492537313435 -3.3840597014925375
C 1.7791477611940298 -1.082849253731343 -2.4255597014925376
H 1.4739477611940297 -0.9102492537313429 -3.464259701492538
H 2.1252477611940295 -0.1337492537313434 -2.0010597014925384
C 1.3965477611940298 2.0964507462686566 1.997440298507462
H 1.51704776119403 1.8448507462686567 3.057640298507462
H 2.1256477611940294 1.5207507462686571 1.4165402985074618
C 3.94864776119403 -1.4275492537313434 -3.522959701492538
H 4.81734776119403 -2.087049253731343 -3.615159701492538
H 3.4305477611940303 -1.3641492537313429 -4.484459701492538
H 4.26984776119403 -0.441449253731343 -3.176459701492538
C 2.60904776119403 -3.4296492537313434 -2.8992597014925376
H 1.9825477611940296 -3.869549253731343 -2.119359701492538
H 2.06294776119403 -3.373349253731343 -3.845759701492538
H 3.5215477611940305 -4.019849253731343 -3.0234597014925377
C 3.7281477611940304 -2.060049253731343 -1.156659701492538
H 3.9048477611940298 -1.032549253731343 -0.8295597014925382
H 3.12924776119403 -2.623249253731343 -0.4404597014925382
H 4.68244776119403 -2.5769492537313434 -1.3005597014925383
C 3.1110477611940297 3.755250746268656 2.588740298507462
H 3.40124776119403 4.809350746268656 2.534540298507462
H 2.9823477611940303 3.461750746268656 3.634840298507462
H 3.86514776119403 3.1392507462686563 2.091540298507462
C 1.99744776119403 3.9574507462686572 0.40494029850746194
H 2.67914776119403 3.230350746268657 -0.04295970149253803
H 1.03214776119403 3.981150746268657 -0.10175970149253821
H 2.4399477611940297 4.958250746268657 0.368240298507462
C 0.7418477611940297 4.4992507462686575 2.475440298507462
H -0.18475223880597014 4.424250746268656 1.901240298507462
H 0.57844776119403 4.189650746268656 3.511940298507462
H 1.1210477611940297 5.524350746268658 2.4432402985074617
N 3.00114776119403 -2.025349253731343 -2.490159701492538
N 1.7831477611940298 3.586450746268657 1.862540298507462
C -3.55075223880597 -3.8435492537313434 0.6444402985074619
H -2.62515223880597 -2.2736492537313433 1.7424402985074618
H -4.67195223880597 -1.3478492537313436 1.5102402985074619
H -4.83415223880597 -1.6757492537313432 -0.1945597014925382
H -3.7169522388059697 0.17335074626865676 -0.900559701492538
H -3.9132522388059705 -4.043149253731343 -0.34225970149253815
H -4.35435223880597 -3.9354492537313432 1.3449402985074619
H -2.78115223880597 -4.545049253731343 0.8904402985074619
H -5.24235223880597 1.138950746268657 1.5249402985074618
H -5.92805223880597 0.6501507462686567 -0.006059701492538094
H -4.89895223880597 2.059650746268657 0.08004029850746197
C 0.2733326784843706 2.8161814734450936 -3.1408555097581985
O 1.3997384182414536 2.6659750336433903 -2.693168528169058
O -0.7419656289740671 3.0143815336538773 -2.4637162721524706
O -0.02558698323037789 2.793231771286052 -4.340342371466634
O -6.270112166680539 2.70539452418161 -3.749331322927322
H -5.840096585936285 1.8567847529709924 -3.9334927016771717
H -6.36903403990756 2.7133498051819562 -2.7854261819505437
O 4.579169600006953 -5.368163479405716 2.113587341320751
H 4.237883264633006 -4.465921060463155 2.2055091104926876
H 4.095469446270975 -5.725076570447044 1.3535813209372836
O -6.87870025132171 -5.818762700150382 6.599017728049864
H -6.789705161725582 -6.561323629989268 7.2151755782835405
H -7.37972961727863 -5.157709996598609 7.0999576864038545
O -2.2598625692750565 3.779940611908252 -5.1302763039704455
H -2.0411408256420387 3.2614585862627323 -5.919139121477173
H -2.920741677597822 3.2400896510724726 -4.671188416341954
O 2.6628832410272856 2.439622781575957 -6.029526654576576
H 3.5029822469303014 2.2646908392327902 -5.579415742990539
H 2.8812250918434934 2.363455298136641 -6.970529999389267
O 4.749685020215298 -5.511986409491929 5.374423644785532
H 4.745946442697328 -5.649868798218778 6.3335596241008325
H 5.57645143680733 -5.924136007546468 5.081931002965177
O 5.803525807953337 0.9612531133987021 -2.2869846519770634
H 5.720728134000882 1.9140139422152211 -2.443057407962609
H 6.270641264367447 0.9025377489925002 -1.4400386084408283
O -2.7250400660626 1.1417189552604807 -5.642708505868161
H -2.737385497315173 0.2727736941621206 -6.0713681382595155
H -1.9749643603160396 1.0904963776338052 -5.031378294370254
O 4.987087359624646 7.2831409949930555 -5.820734352110113
H 5.085592046169382 7.467322073184869 -6.766959227108031
H 5.2788841999345255 6.363619442975968 -5.729648328696768
O 5.738871721278747 8.9673954065632 1.7682031762123533
H 5.824054382918093 9.86151436331167 1.4045239738388031
H 6.255735348788282 8.997651998841999 2.587287099556817
O -2.1024557664926045 -6.031332616831357 -5.252208878024494
H -1.7290057421762226 -6.721057578257456 -5.821227255428829
H -1.4157704076162638 -5.347968214716836 -5.231274310258859
O 0.9392579482761849 -7.750343397979541 -0.25279082915736384
H 1.4662996940327824 -7.720566631111533 0.5598023650577538
H 1.3897913058055416 -8.411141562938038 -0.7998990663836074
O -9.236751688328685 -1.7639431202760982 1.1415812425019307
H -8.636879953912192 -2.434269632296444 1.5018361889367935
H -9.685125375563828 -2.2185597371659256 0.4127145108267851
O -9.644421312735078 4.035899621969807 -5.438242663504128
H -9.920427683683016 3.4140449968120157 -4.748253775719684
H -10.461615224192817 4.498885124174455 -5.676571176537527
O -5.8833997178092305 4.851340915803285 2.8313184024019034
H -5.884048037357352 5.244672386939046 1.94573537953169
H -5.109301243196315 4.268483847214415 2.8279817127331883
O 5.495743968264566 -1.8768230807831117 6.4165352677309055
H 5.6128297414164425 -1.6965267848338004 5.47167997495196
H 6.35497828798758 -2.226705125430944 6.696286734113451
O 1.9117277221221365 -1.1696323961230595 -7.681898332512191
H 2.3194493150895736 -1.2890985642558248 -8.552793443418075
H 0.9605363748977489 -1.1693715785513659 -7.866822363507754
O 2.4844551473396956 -8.653828808340835 3.6305024069356184
H 1.7058577560593395 -9.143218926309483 3.32513251381245
H 3.06018856195571 -9.33861892742435 4.002732809240658
O -4.906711291449405 -5.662378380725652 -6.682758925710606
H -4.798603792100319 -5.710433212958811 -5.721004872647386
H -5.255602832727691 -6.533908089941646 -6.9229101336574885
O 3.2431279749417095 7.2929935649100335 4.891279036916192
H 2.6807429188583587 6.915586715803966 4.19827508610353
H 2.6588750368004304 7.348755883570787 5.662317954475388
C -9.326232524280043 -11.23598443766472 14.925616925930308
O -9.479609744934598 -11.38091530860806 16.10387357375025
O -9.172855303625486 -11.091053566721381 13.747360278110365
O -0.43362664972795373 -4.447323992043766 11.33446199524921
H 0.1418740279081009 -4.758508457440119 12.049256060303216
H -0.0866541281706152 -4.889681213137229 10.545226857580715
O 8.090115537679663 15.718894552039595 4.0677695934625495
H 8.217978204356356 15.651433732560227 5.025928000619476
H 7.358632266769185 15.109975241322237 3.885804097520035
O 2.2934964028215177 -0.46404694732012053 3.6128187745266276
H 2.1059936038972853 -1.0069996231718963 2.832426277714301
H 2.69064908281102 -1.0860557835111133 4.240781114780788
O -10.800937156186944 11.429210628223835 -3.1185187371207777
H -10.489706053178145 11.223695466659493 -2.2241664151653255
H -11.758296789462998 11.536699042806465 -3.014256003586447
O -8.259213191715368 4.56731020486094 1.0564688493652281
H -7.500190092251474 3.9680638676887914 1.1177478732313826
H -8.103873438190735 5.214560190286392 1.7606697877639617
O 7.09974733238321 8.156180442071978 -4.971732082080765
H 7.93121284217462 8.580808660350403 -5.231199496545481
H 6.424143040091401 8.820064405353335 -5.17613087815041
O -1.8352770916404433 16.899582373926293 8.162507278225892
H -1.8000488941246724 17.855543665957992 8.008026408417109
H -2.235765122635957 16.81908314721134 9.041194455683051
O 11.721640292121712 5.171820997570763 6.5388073260985
H 10.84517453038113 4.771667955149411 6.435595563021638
H 11.742245964915876 5.867404917054522 5.864492591346017
O -8.20361239253289 -4.9119347835329465 -1.4271318131288373
H -7.504677477235536 -5.15460987965122 -0.8013793550415613
H -7.8151401273627865 -4.189792881495037 -1.9434285464273153
O 4.733887747780067 -12.30538942762145 -12.592309662752282
H 4.219850472700694 -11.528729880371612 -12.324853153400472
H 4.774687718259576 -12.237825620818912 -13.558090403251501
O 3.5211062922060057 -6.059445554090427 14.495698265553779
H 3.8585239137727005 -6.557386834300305 15.255416099370537
H 3.07057176846857 -6.728512607225737 13.958734704751452
O 5.099012586649172 -9.391217775061278 -22.948615444637994
H 4.779218460529455 -9.882044757351958 -22.176742432248812
H 5.30656802063435 -8.512232956796225 -22.597519481427398
O -2.3425778870277085 -14.32459258317685 -16.158141631569144
H -2.236037742217169 -14.295871653534943 -17.12084182511034
H -1.485831100007882 -14.024939362699524 -15.818796917909463
O -8.549760386044653 15.780293976475372 -13.041230674564977
H -9.178134198464292 15.754439913817341 -13.778418083714975
H -8.684591471086222 14.93398767062295 -12.588960667289522
O -6.164900197425373 10.211255667496363 1.17496726143856
H -5.807443675367189 10.98231667610252 0.709502855983831
H -5.737069212860511 9.45734687991899 0.7419036021921652
O -15.025515965791953 2.0724357032678764 -16.064420884909904
H -15.048479943424601 2.135590720605917 -15.097750591368033
H -15.952401030500301 1.9365746193954427 -16.312186473742592
O 12.21540187718626 14.488395118352553 -3.3506589436472556
H 12.389997847075064 15.280497317065755 -2.820510180570044
H 12.064929177033083 13.79414171562802 -2.6916201560072412
O -18.259707327701026 2.9619593215143176 6.034381224923316
H -18.626822383393105 2.9553361670704925 6.931125350418109
H -19.041038859240626 2.945738407645888 5.461476464884395
O 10.080587507795189 -13.39406395272922 -5.654946903186718
H 10.567930667861717 -13.585839081465373 -4.839663945414017
H 9.675511271858412 -12.529826606942438 -5.487707561144505
O 16.717080997814158 -3.672056266764969 1.2828472900326118
H 17.590812127051816 -3.328452533132677 1.0430604160485577
H 16.212714662594117 -3.626113562243445 0.4567323996584268