194

C -5.0710522388059704 1.0783507462686561 0.47044029850746183
C -3.8153522388059704 0.1782507462686569 0.19534029850746193
C -4.11845223880597 -1.3219492537313435 0.5608402985074619
C -2.96945223880597 -2.3874492537313436 0.7034402985074619
C -2.52015223880597 0.7359507462686565 0.7384402985074618
C -2.20305223880597 0.7852507462686571 2.097440298507462
C -1.5755522388059702 1.205650746268656 -0.18965970149253808
C -0.9533522388059701 1.2695507462686564 2.508640298507462
H -2.91125223880597 0.4298507462686567 2.840840298507462
C -0.32655223880597006 1.6562507462686575 0.21554029850746192
H -1.7850522388059702 1.178550746268657 -1.2573597014925382
C 0.004447761194029898 1.6956507462686563 1.569740298507462
H -0.7158522388059702 1.2676507462686573 3.5705402985074617
H 0.3943477611940298 1.9193507462686572 -0.5551597014925382
C -1.76045223880597 -2.1592492537313435 -0.1734597014925381
C -0.5287522388059701 -1.936549253731343 0.464840298507462
C -1.8068522388059702 -2.121249253731343 -1.5681597014925381
C 0.6114477611940299 -1.614449253731343 -0.2582597014925381
H -0.4544522388059702 -1.954049253731343 1.5506402985074619
C -0.6479522388059701 -1.8270492537313432 -2.2998597014925384
H -2.74345223880597 -2.290549253731343 -2.092259701492538
C 0.5698477611940298 -1.5506492537313434 -1.6506597014925382
H 1.5072477611940298 -1.351949253731343 0.2991402985074618
H -0.7173522388059701 -1.7640492537313435 -3.3840597014925375
C 1.7791477611940298 -1.082849253731343 -2.4255597014925376
H 1.4739477611940297 -0.9102492537313429 -3.464259701492538
H 2.1252477611940295 -0.1337492537313434 -2.0010597014925384
C 1.3965477611940298 2.0964507462686566 1.997440298507462
H 1.51704776119403 1.8448507462686567 3.057640298507462
H 2.1256477611940294 1.5207507462686571 1.4165402985074618
C 3.94864776119403 -1.4275492537313434 -3.522959701492538
H 4.81734776119403 -2.087049253731343 -3.615159701492538
H 3.4305477611940303 -1.3641492537313429 -4.484459701492538
H 4.26984776119403 -0.441449253731343 -3.176459701492538
C 2.60904776119403 -3.4296492537313434 -2.8992597014925376
H 1.9825477611940296 -3.869549253731343 -2.119359701492538
H 2.06294776119403 -3.373349253731343 -3.845759701492538
H 3.5215477611940305 -4.019849253731343 -3.0234597014925377
C 3.7281477611940304 -2.060049253731343 -1.156659701492538
H 3.9048477611940298 -1.032549253731343 -0.8295597014925382
H 3.12924776119403 -2.623249253731343 -0.4404597014925382
H 4.68244776119403 -2.5769492537313434 -1.3005597014925383
C 3.1110477611940297 3.755250746268656 2.588740298507462
H 3.40124776119403 4.809350746268656 2.534540298507462
H 2.9823477611940303 3.461750746268656 3.634840298507462
H 3.86514776119403 3.1392507462686563 2.091540298507462
C 1.99744776119403 3.9574507462686572 0.40494029850746194
H 2.67914776119403 3.230350746268657 -0.04295970149253803
H 1.03214776119403 3.981150746268657 -0.10175970149253821
H 2.4399477611940297 4.958250746268657 0.368240298507462
C 0.7418477611940297 4.4992507462686575 2.475440298507462
H -0.18475223880597014 4.424250746268656 1.901240298507462
H 0.57844776119403 4.189650746268656 3.511940298507462
H 1.1210477611940297 5.524350746268658 2.4432402985074617
N 3.00114776119403 -2.025349253731343 -2.490159701492538
N 1.7831477611940298 3.586450746268657 1.862540298507462
C -3.55075223880597 -3.8435492537313434 0.6444402985074619
H -2.62515223880597 -2.2736492537313433 1.7424402985074618
H -4.67195223880597 -1.3478492537313436 1.5102402985074619
H -4.83415223880597 -1.6757492537313432 -0.1945597014925382
H -3.7169522388059697 0.17335074626865676 -0.900559701492538
H -3.9132522388059705 -4.043149253731343 -0.34225970149253815
H -4.35435223880597 -3.9354492537313432 1.3449402985074619
H -2.78115223880597 -4.545049253731343 0.8904402985074619
H -5.24235223880597 1.138950746268657 1.5249402985074618
H -5.92805223880597 0.6501507462686567 -0.006059701492538094
H -4.89895223880597 2.059650746268657 0.08004029850746197
C 1.3622185824577557 -4.031003034049029 0.9261545501564838
O 0.472251500013404 -4.400086069562374 0.17548031744182402
O 1.2508187267089124 -3.146186676632884 1.7824965086566862
O 2.5119877707309004 -4.485204728803995 0.9456486153925947
O 4.335801532656834 -3.727019987495932 5.579600215564514
H 4.373141025269301 -2.952359094689035 4.998675418067398
H 4.212381675584908 -3.3506624702849996 6.463955631909757
O 6.793796478094287 2.027494096149754 -3.36559681497294
H 7.587331069045874 2.275887594593959 -3.8631617652999775
H 6.935110211412643 2.417314810626122 -2.489793079173211
O -1.5512310796345536 6.841162380407429 3.439178812708794
H -1.8360609345648045 7.3698596449339675 4.199651371794637
H -2.1070347005098475 7.158964944480148 2.711823459672387
O -5.77273446743297 1.852093751947539 -6.257216392759593
H -5.14598749141469 1.184363843397394 -5.940526711558013
H -5.636174056414436 1.8649873938046104 -7.216459298619267
O 0.7530186054999737 -12.280475502260078 -5.308840667679284
H 0.7301434690240933 -12.045727789120415 -4.36898025452906
H 1.6895478027012665 -12.458077851695624 -5.483002697308235
O 6.41209188336038 -2.070344005140551 -8.631722396468755
H 6.653594820931405 -2.033390988847115 -7.694024064044417
H 7.264012785481903 -2.115686642341669 -9.091218605463016
O 0.464697084603243 1.6228543035680945 -11.020446391999261
H 1.0542672041326981 2.3122289164699836 -11.361235291678222
H 0.4699693050501119 1.7633022857941008 -10.061692767609657
O -5.900663300773569 5.3210028527904125 2.9249249679512666
H -5.938374271694716 5.442668629792207 3.8855199285245225
H -5.327409294719754 6.040371100397608 2.6202101616523232
O 1.0334257786721335 -3.2294474463438307 6.776766079868552
H 1.8892640990406233 -3.09887656532939 7.212035388825612
H 1.2602922145480582 -3.331480013975665 5.840239027554841
O -4.278509376120003 4.02797669262265 7.1907277864473755
H -4.006665926122679 4.411617598667628 6.343444981946693
H -4.7332574147703435 4.7551234395341035 7.641753034188294
O -5.325679794073359 -2.5952906628968564 -10.171166399323312
H -5.720308157664444 -2.627313083123542 -9.286739818903971
H -5.368202035435392 -3.5128405532260003 -10.479802110229432
O 1.6719339550807497 -7.781558936623285 -3.226110483076711
H 0.754545686972838 -7.626767204257421 -3.497045239114289
H 2.074324462597734 -8.210188710331979 -3.99638338332094
O 2.078667112042795 3.757114467883261 8.076823554416574
H 1.1861778217374561 3.380880908628762 8.047183505817353
H 2.523689536927631 3.3646233394015015 7.3107506468465875
O -0.6987646373230141 -3.663489084895835 -6.510823336807747
H -0.7174959274129926 -3.445929804145794 -7.454901964375966
H -0.5270742775829214 -2.8136226551574337 -6.07814399101456
O 6.90960484415853 -4.761686471925984 1.3091171289470238
H 7.396224894133955 -4.719020439353832 0.4722492220904704
H 7.593583498735718 -4.953889494847928 1.968050465759212
O -2.6429833999633723 -10.676362028599039 -2.2336168125078495
H -2.644447670129181 -10.722602094997455 -1.2657185383734482
H -3.0916943997323107 -11.490366654265923 -2.507508857626503
O 8.142598914330113 0.6393916145712346 -6.136232239755149
H 7.713045504255238 -0.17247504716012996 -6.444977682413361
H 8.807577885389417 0.32670215973444217 -5.504575515590212
O -3.749077114657494 8.849589725113923 5.187195192859106
H -4.315217106104535 8.068924858731492 5.092246610034274
H -3.0002114102317075 8.53292162581711 5.714341677171212
O 5.91091654790418 3.322510090839895 5.860957010303357
H 6.369060282214303 4.103269936336716 5.515289917174497
H 5.418405578239651 2.983434043199584 5.098446470719326
O -6.5009667457898574 -4.089193142341788 5.8739857817956205
H -6.430676427417346 -5.0294712344785575 6.097377226329043
H -7.186977279501415 -4.061727214671214 5.190175051582955
C -10.822987403015722 3.08621029242819 8.386790190834231
O -10.828113224510137 3.1102802417810116 9.58354105078469
O -10.817861581521306 3.062140343075369 7.190039330883774
O -6.535049954986774 -3.1354362221934187 1.5114716666313224
H -6.290631471386847 -3.4515173530368433 0.6286808190918529
H -7.4556205120119055 -2.849991531465662 1.411306191672259
O 14.73993146525276 1.0102221891538397 1.472389105559615
H 14.155783205825857 1.333777301968892 0.7702137308278045
H 14.293844165958422 1.2779726608705593 2.2898716745503904
O 2.4556910011009307 -0.38124734195436716 10.634052080682872
H 1.719651468591525 -0.2573448490896446 11.25200137936784
H 2.900378104998541 0.47963355706634925 10.624082044151331
O -8.20117178914301 4.935603989450735 -12.586581453844431
H -8.12374949578794 5.121435293043506 -13.53444213558867
H -7.64201093098241 5.608319149577189 -12.169741685663487
O -3.920865964996363 5.230141367152145 -8.652788925010332
H -4.459094438625874 4.472366074969412 -8.378828939552927
H -4.117931263983455 5.90902138385235 -7.9900301942792655
O 9.096541633268034 -0.23451077277377758 -11.822026609750637
H 9.087436949390137 0.21682727832335918 -12.679452073137002
H 8.253952390701029 0.01810435218108103 -11.41558976194473
O -18.46214062615288 13.079529235477022 1.2202909332484642
H -18.218079806404646 13.361338190862925 0.32587191185629516
H -18.198032579710183 13.824618740983599 1.7806930325380588
O 3.4051022741307886 -22.24185421884986 4.0103371712094855
H 2.85686747194414 -22.10060206100709 3.2239188432973442
H 4.308669902791298 -22.086257347276955 3.6967815967198154
O 17.940649599224837 -2.8536384473265306 8.933711680282613
H 17.20571263962216 -2.3101375554640375 9.255335377877564
H 18.466580372663657 -2.242027057063357 8.396784987753367
O 8.778939593608705 -15.088245616213554 12.83279192745002
H 8.52744380044649 -15.215888637381688 13.759843426595982
H 8.524629376295255 -14.17220696065438 12.645278090117063
O 0.344116845551941 8.636828573737986 -18.166362705133032
H 0.36323222605102723 9.11651641336172 -17.32463737247071
H 0.05400861303925719 9.302129426439674 -18.808370441163348
O 0.483295378995368 -12.98056189224631 11.659767723023004
H 0.5756409968883296 -13.039429742631768 10.696972718908958
H 1.1575176620924474 -13.589259165449901 11.997219774238989
O 17.977527896567487 2.5093896046904796 -12.289547836406355
H 18.7601823025469 2.981904516314687 -11.968379506719604
H 18.245549953647586 2.1765895975449805 -13.159243344306969
O -5.480594487385828 14.83436140196591 -12.089302875297564
H -5.897543827579104 14.036636345577836 -12.448127817327851
H -6.006661211207934 15.559634768904953 -12.458347980394457
O -1.5625639252408392 8.849122801042501 13.520032708845422
H -2.427767696466632 9.114352042553229 13.173560140516685
H -1.0101456148721206 9.635718523759063 13.39730079093741
O -12.952053047993621 1.0083709672274197 8.013924630565835
H -13.43531340007396 0.9552866226662898 7.175706973050973
H -12.47915348624124 1.8523178759895722 7.958412794123401
O 8.564200664849249 7.4488357248847965 -8.439292908720896
H 9.512527543749947 7.588566133670057 -8.297451798618193
H 8.482478222323815 7.355908858014221 -9.400358975181103
O 5.393152320838016 9.996703610938503 -0.28421196772777557
H 4.851050821585731 9.193640402934212 -0.29773252090730984
H 6.300471616876723 9.665349778402154 -0.20715175101839337
O 11.56541590661875 0.40661731965360226 4.757478542141013
H 10.659264790282027 0.1040982596328941 4.919773734879115
H 12.049086940133309 -0.4059440824679217 4.545893468420625
O 2.886656075305921 -10.274661236006422 15.08721814444877
H 2.8241395978360844 -9.307689869252929 15.082176039367962
H 2.937020603728987 -10.501049081876065 16.028054953794165