194

C -5.0710522388059704 1.0783507462686561 0.47044029850746183
C -3.8153522388059704 0.1782507462686569 0.19534029850746193
C -4.11845223880597 -1.3219492537313435 0.5608402985074619
C -2.96945223880597 -2.3874492537313436 0.7034402985074619
C -2.52015223880597 0.7359507462686565 0.7384402985074618
C -2.20305223880597 0.7852507462686571 2.097440298507462
C -1.5755522388059702 1.205650746268656 -0.18965970149253808
C -0.9533522388059701 1.2695507462686564 2.508640298507462
H -2.91125223880597 0.4298507462686567 2.840840298507462
C -0.32655223880597006 1.6562507462686575 0.21554029850746192
H -1.7850522388059702 1.178550746268657 -1.2573597014925382
C 0.004447761194029898 1.6956507462686563 1.569740298507462
H -0.7158522388059702 1.2676507462686573 3.5705402985074617
H 0.3943477611940298 1.9193507462686572 -0.5551597014925382
C -1.76045223880597 -2.1592492537313435 -0.1734597014925381
C -0.5287522388059701 -1.936549253731343 0.464840298507462
C -1.8068522388059702 -2.121249253731343 -1.5681597014925381
C 0.6114477611940299 -1.614449253731343 -0.2582597014925381
H -0.4544522388059702 -1.954049253731343 1.5506402985074619
C -0.6479522388059701 -1.8270492537313432 -2.2998597014925384
H -2.74345223880597 -2.290549253731343 -2.092259701492538
C 0.5698477611940298 -1.5506492537313434 -1.6506597014925382
H 1.5072477611940298 -1.351949253731343 0.2991402985074618
H -0.7173522388059701 -1.7640492537313435 -3.3840597014925375
C 1.7791477611940298 -1.082849253731343 -2.4255597014925376
H 1.4739477611940297 -0.9102492537313429 -3.464259701492538
H 2.1252477611940295 -0.1337492537313434 -2.0010597014925384
C 1.3965477611940298 2.0964507462686566 1.997440298507462
H 1.51704776119403 1.8448507462686567 3.057640298507462
H 2.1256477611940294 1.5207507462686571 1.4165402985074618
C 3.94864776119403 -1.4275492537313434 -3.522959701492538
H 4.81734776119403 -2.087049253731343 -3.615159701492538
H 3.4305477611940303 -1.3641492537313429 -4.484459701492538
H 4.26984776119403 -0.441449253731343 -3.176459701492538
C 2.60904776119403 -3.4296492537313434 -2.8992597014925376
H 1.9825477611940296 -3.869549253731343 -2.119359701492538
H 2.06294776119403 -3.373349253731343 -3.845759701492538
H 3.5215477611940305 -4.019849253731343 -3.0234597014925377
C 3.7281477611940304 -2.060049253731343 -1.156659701492538
H 3.9048477611940298 -1.032549253731343 -0.8295597014925382
H 3.12924776119403 -2.623249253731343 -0.4404597014925382
H 4.68244776119403 -2.5769492537313434 -1.3005597014925383
C 3.1110477611940297 3.755250746268656 2.588740298507462
H 3.40124776119403 4.809350746268656 2.534540298507462
H 2.9823477611940303 3.461750746268656 3.634840298507462
H 3.86514776119403 3.1392507462686563 2.091540298507462
C 1.99744776119403 3.9574507462686572 0.40494029850746194
H 2.67914776119403 3.230350746268657 -0.04295970149253803
H 1.03214776119403 3.981150746268657 -0.10175970149253821
H 2.4399477611940297 4.958250746268657 0.368240298507462
C 0.7418477611940297 4.4992507462686575 2.475440298507462
H -0.18475223880597014 4.424250746268656 1.901240298507462
H 0.57844776119403 4.189650746268656 3.511940298507462
H 1.1210477611940297 5.524350746268658 2.4432402985074617
N 3.00114776119403 -2.025349253731343 -2.490159701492538
N 1.7831477611940298 3.586450746268657 1.862540298507462
C -3.55075223880597 -3.8435492537313434 0.6444402985074619
H -2.62515223880597 -2.2736492537313433 1.7424402985074618
H -4.67195223880597 -1.3478492537313436 1.5102402985074619
H -4.83415223880597 -1.6757492537313432 -0.1945597014925382
H -3.7169522388059697 0.17335074626865676 -0.900559701492538
H -3.9132522388059705 -4.043149253731343 -0.34225970149253815
H -4.35435223880597 -3.9354492537313432 1.3449402985074619
H -2.78115223880597 -4.545049253731343 0.8904402985074619
H -5.24235223880597 1.138950746268657 1.5249402985074618
H -5.92805223880597 0.6501507462686567 -0.006059701492538094
H -4.89895223880597 2.059650746268657 0.08004029850746197
C -0.5444495381296477 1.7523125799090786 -4.333475798986773
O -1.4619149535281477 1.1524948312923469 -4.872225628306479
O -0.41369864064601813 1.9077883870726566 -3.1139008975173885
O 0.39524913701575537 2.296671055875928 -4.9244822574735005
O -6.698533381864369 9.008099448834123 -3.201497514488212
H -5.882394214009901 8.641117149230741 -3.5732611589878225
H -6.950921140680004 9.701298265990953 -3.8297791101062852
O 8.811289208820524 -1.216735154615463 -4.399798805099728
H 9.231495957189495 -0.5813553470159558 -4.998702925656593
H 8.223841222382081 -1.728375416256108 -4.976072221281413
O 3.9540502382253493 7.470971326753955 -3.9916494875829724
H 3.2999291195728278 7.773082636879884 -3.343713012821155
H 3.657274938645263 7.865717126578979 -4.825353343505237
O 1.770358386513208 10.713560336613657 3.0381629724257424
H 1.975793780382351 11.182509275210482 3.8608722460058695
H 1.9749304604072182 11.358019943232947 2.3440563334149824
O -5.991256111349929 5.8796442839321905 3.54707646557181
H -6.501884400441532 6.487281186430778 2.991195631218523
H -5.228690188667124 6.406229042166837 3.8302083257675146
O -4.393020874042498 -4.741301853409209 6.894435134106086
H -5.21766510262738 -4.3045569312261165 6.633316145694807
H -4.348951321342987 -5.520654651763942 6.320301844249531
O -4.826420408716472 -6.157135175291437 2.6002289555906
H -5.138151810328898 -5.975469489028928 3.4995556307112285
H -4.0514150849208175 -6.7238685358762975 2.7311563797177962
O -3.795179029612133 9.27347994808027 2.385764154812859
H -4.614267274763659 9.24516395104731 2.902736115238785
H -3.488468776781734 10.187495047261166 2.483063505160364
O -7.878424910579755 5.2077988348050885 -5.594399911924146
H -7.513812236268669 5.724720849135455 -4.860358642149514
H -7.141305285820087 5.136526813796207 -6.219329429642322
O 8.30948637271512 1.7676008823148353 -0.01071568068920592
H 8.975248486373548 2.4496735392992144 0.1639412845636381
H 8.694012964710215 0.9627883883882098 0.3679373187287869
O 1.4358566867787517 3.0630849809112277 6.335532926128623
H 0.6250094551870735 2.5920657066647275 6.5797356435754475
H 1.192643926020857 3.998591230467621 6.4036325175036986
O 1.6062412643684625 -4.779636043426926 1.8125432711134475
H 1.9718344783323016 -4.146928703141525 2.448931816227645
H 2.1008244923269093 -4.6044825090148835 0.9978834560340665
O -6.032685790160082 -2.116069762066274 -5.420299721348183
H -5.342594705518801 -2.7519646222027405 -5.178681471518734
H -6.702273867830177 -2.2230375367777806 -4.728077469672225
O 4.366809847622996 2.604402207183874 -3.120902494668762
H 4.424844698948168 3.113155062628911 -2.298242270148221
H 4.471506604741631 3.271080807685699 -3.816273026818183
O -8.143966082245713 -1.3352825481330513 0.7251311039119079
H -8.045731841889868 -1.9293856132241634 -0.034051969510475844
H -7.283441006936309 -1.3778996546473674 1.1685748109324157
O 6.894882369989233 3.4007621180748053 4.3978402582317
H 6.966330358416539 3.3929608099003037 3.4315061123792123
H 7.412914712381964 4.175000946068405 4.664596089962138
O -0.11942426191533523 -2.5148739975767005 4.456659971917274
H 0.11381269364584261 -2.7709171101942447 5.361651576265996
H -0.9466256895663112 -2.0206919918222437 4.559050828836673
O 2.47305648117422 7.927322945415994 0.537668463504914
H 1.6459961944285002 8.370797529176752 0.29627887684817633
H 2.2979362781383212 6.991404790741745 0.3578016612877897
O -5.875750324934724 -6.91674999619328 -2.679453755121405
H -5.178888229068375 -7.585451663529641 -2.758121768610578
H -5.907218320036487 -6.507130481968136 -3.557054782439759
O -1.9060247528921284 4.447308827442939 9.703971282488167
H -2.1536386502748073 4.611536636879193 8.781645992077712
H -1.6532722013628882 5.32123697818385 10.03762931002239
C -2.9273719510889773 -16.9571547544831 5.906386043299974
O -3.572948860921981 -17.681487386499406 5.205393212390271
O -2.2817950412559735 -16.232822122466793 6.607378874209676
O -4.5069471899762465 13.70986698205389 1.822260275353531
H -3.5509301711042274 13.64028397811655 1.6802848475848036
H -4.7439244944342995 14.55425299054264 1.4101729422064997
O 9.293008257170827 6.677946543346685 -1.853189767132155
H 9.734213765267084 7.136941231110351 -2.5836888657833867
H 8.689591389398432 7.343073400728737 -1.4892443157567772
O -0.260511305798806 -6.806947778941911 -16.428975032270067
H 0.14474132211495316 -7.682793381719888 -16.34161288621428
H -0.7221658085533793 -6.846489716650286 -17.28001762788364
O -4.052515924085664 12.170685200519568 -6.671366270727245
H -3.2732819712980383 12.580336435621675 -6.266461751979562
H -4.156280107242132 11.33705170419044 -6.188406508022377
O -3.9004876562913244 -21.871620868469698 -8.107079711319265
H -3.4188677736888486 -21.125191673538325 -8.494188355676487
H -3.3981490240704115 -22.64874028756508 -8.394661441168848
O -9.500610018796953 -7.56639239008244 10.999011483765951
H -8.910421646792209 -8.108730012361864 11.543543343174278
H -9.388079701027134 -6.671102550177768 11.352218185919368
O 18.0127177634195 6.257528397694429 3.6080736241680693
H 18.35863867381489 6.378220050140507 4.50514642259697
H 18.681498999336164 6.670990163164441 3.041731879918016
O -1.1535521699633382 -3.9415738132065337 11.047119598166537
H -1.8742690600805032 -3.2998682356592015 11.135145008955064
H -0.7780404054507972 -3.9955752344174154 11.938767906368758
O 0.774890753389637 -9.522036734506543 7.266648853747072
H 0.5578455275438747 -9.206418657199047 8.156729724294395
H 1.4088067580312569 -8.868632062139486 6.934722992313974
O -8.038939574565788 -10.29689167759703 -9.240518948970928
H -7.256337181661064 -10.195981879340604 -8.67809734186853
H -8.417263695399875 -11.145408419808643 -8.965106273006823
O -12.620893170814757 -11.057835511229609 8.60871811174281
H -12.323058666317431 -10.809328221536177 7.72073945670652
H -12.779802879089953 -10.209061850818404 9.048369021338207
O 10.399807956279101 -0.8574752930474974 -17.105391998167466
H 10.240012791322574 -0.9329575289636063 -18.05814343176262
H 9.532400296652975 -1.0276160725216688 -16.708380648856327
O 11.100678364735455 -0.29081064422061154 6.179392135305863
H 11.250437757249243 -0.5271281654997804 5.251656445364826
H 11.094233933878439 -1.1433251814294332 6.63997804201444
O 8.225447415584814 -10.984332906584603 15.405456724618162
H 8.211389522380287 -10.95380112013548 14.437036597527198
H 7.855205812768551 -10.12943705906605 15.671982876692542
O -4.181444732537058 -10.071869641356713 14.411422553871386
H -4.119033237880695 -9.991816765925092 15.375094541307927
H -3.543737507551377 -9.42152846753091 14.080744769422628
O 0.9454177147211231 9.946772331067827 -3.299408586687336
H 0.9859013290953396 9.999125533823605 -4.266149284097151
H 1.8682215329982492 10.045641182543596 -3.0208049121225216
O -3.8622095209611036 11.193320901575369 -11.390818947462225
H -4.278169881820337 10.97130150149751 -12.237371793469446
H -4.538984265096332 11.707209773081082 -10.925140820701603
O -13.17681678009874 9.34750155834081 4.048648207797533
H -13.272559938986735 9.19778153236389 3.096080877763787
H -13.762105104497413 8.687314056551815 4.449337593861354
O 18.563764304547938 2.9438677671766715 -6.538575958459758
H 18.58904263358684 2.926752316496559 -7.507098247480004
H 17.780951776841032 2.418108949918966 -6.315541977100615
O 15.047929884304047 13.397705266771977 3.134624581204382
H 14.949548148677186 13.959878796128844 2.35152221632129
H 15.646351316781372 13.898849386467521 3.7088269015988296