194

C -5.0710522388059704 1.0783507462686561 0.47044029850746183
C -3.8153522388059704 0.1782507462686569 0.19534029850746193
C -4.11845223880597 -1.3219492537313435 0.5608402985074619
C -2.96945223880597 -2.3874492537313436 0.7034402985074619
C -2.52015223880597 0.7359507462686565 0.7384402985074618
C -2.20305223880597 0.7852507462686571 2.097440298507462
C -1.5755522388059702 1.205650746268656 -0.18965970149253808
C -0.9533522388059701 1.2695507462686564 2.508640298507462
H -2.91125223880597 0.4298507462686567 2.840840298507462
C -0.32655223880597006 1.6562507462686575 0.21554029850746192
H -1.7850522388059702 1.178550746268657 -1.2573597014925382
C 0.004447761194029898 1.6956507462686563 1.569740298507462
H -0.7158522388059702 1.2676507462686573 3.5705402985074617
H 0.3943477611940298 1.9193507462686572 -0.5551597014925382
C -1.76045223880597 -2.1592492537313435 -0.1734597014925381
C -0.5287522388059701 -1.936549253731343 0.464840298507462
C -1.8068522388059702 -2.121249253731343 -1.5681597014925381
C 0.6114477611940299 -1.614449253731343 -0.2582597014925381
H -0.4544522388059702 -1.954049253731343 1.5506402985074619
C -0.6479522388059701 -1.8270492537313432 -2.2998597014925384
H -2.74345223880597 -2.290549253731343 -2.092259701492538
C 0.5698477611940298 -1.5506492537313434 -1.6506597014925382
H 1.5072477611940298 -1.351949253731343 0.2991402985074618
H -0.7173522388059701 -1.7640492537313435 -3.3840597014925375
C 1.7791477611940298 -1.082849253731343 -2.4255597014925376
H 1.4739477611940297 -0.9102492537313429 -3.464259701492538
H 2.1252477611940295 -0.1337492537313434 -2.0010597014925384
C 1.3965477611940298 2.0964507462686566 1.997440298507462
H 1.51704776119403 1.8448507462686567 3.057640298507462
H 2.1256477611940294 1.5207507462686571 1.4165402985074618
C 3.94864776119403 -1.4275492537313434 -3.522959701492538
H 4.81734776119403 -2.087049253731343 -3.615159701492538
H 3.4305477611940303 -1.3641492537313429 -4.484459701492538
H 4.26984776119403 -0.441449253731343 -3.176459701492538
C 2.60904776119403 -3.4296492537313434 -2.8992597014925376
H 1.9825477611940296 -3.869549253731343 -2.119359701492538
H 2.06294776119403 -3.373349253731343 -3.845759701492538
H 3.5215477611940305 -4.019849253731343 -3.0234597014925377
C 3.7281477611940304 -2.060049253731343 -1.156659701492538
H 3.9048477611940298 -1.032549253731343 -0.8295597014925382
H 3.12924776119403 -2.623249253731343 -0.4404597014925382
H 4.68244776119403 -2.5769492537313434 -1.3005597014925383
C 3.1110477611940297 3.755250746268656 2.588740298507462
H 3.40124776119403 4.809350746268656 2.534540298507462
H 2.9823477611940303 3.461750746268656 3.634840298507462
H 3.86514776119403 3.1392507462686563 2.091540298507462
C 1.99744776119403 3.9574507462686572 0.40494029850746194
H 2.67914776119403 3.230350746268657 -0.04295970149253803
H 1.03214776119403 3.981150746268657 -0.10175970149253821
H 2.4399477611940297 4.958250746268657 0.368240298507462
C 0.7418477611940297 4.4992507462686575 2.475440298507462
H -0.18475223880597014 4.424250746268656 1.901240298507462
H 0.57844776119403 4.189650746268656 3.511940298507462
H 1.1210477611940297 5.524350746268658 2.4432402985074617
N 3.00114776119403 -2.025349253731343 -2.490159701492538
N 1.7831477611940298 3.586450746268657 1.862540298507462
C -3.55075223880597 -3.8435492537313434 0.6444402985074619
H -2.62515223880597 -2.2736492537313433 1.7424402985074618
H -4.67195223880597 -1.3478492537313436 1.5102402985074619
H -4.83415223880597 -1.6757492537313432 -0.1945597014925382
H -3.7169522388059697 0.17335074626865676 -0.900559701492538
H -3.9132522388059705 -4.043149253731343 -0.34225970149253815
H -4.35435223880597 -3.9354492537313432 1.3449402985074619
H -2.78115223880597 -4.545049253731343 0.8904402985074619
H -5.24235223880597 1.138950746268657 1.5249402985074618
H -5.92805223880597 0.6501507462686567 -0.006059701492538094
H -4.89895223880597 2.059650746268657 0.08004029850746197
C 0.8500904236311575 -4.769025784646204 1.9859094930815726
O 0.6845531188450509 -5.408725227066947 3.0131181002742604
O 0.3082798675246492 -5.010361210504179 0.9010915371011663
O 1.5850489888293249 -3.7813185989395874 1.872248562479337
O -3.9210068839202683 5.26599426301955 0.27672053544958874
H -4.639604854721385 5.785063862938696 -0.11462466217048739
H -3.683724381567086 4.6336693803173326 -0.41813498988833175
O 3.5521284068591434 -0.5149054701037706 -6.713300799260573
H 3.520047186461275 -0.5290608441985339 -7.681669415843133
H 2.6582719211099906 -0.24575899369402698 -6.453411012196146
O -5.612369412419177 -5.31806095027601 -3.8039228161205063
H -5.388228222641315 -5.409369293851611 -2.8656313526943245
H -5.764357607032931 -4.367741173252574 -3.916855780290305
O -8.511965227542763 -5.8494379761259 -3.3219103156472296
H -9.045976833998884 -5.693497253656452 -4.115308987278245
H -8.37597603496046 -4.963594538735896 -2.953467255957031
O -6.209684396211997 -5.692154061269768 -0.4286879115655755
H -6.724910422570704 -6.455337773286143 -0.7304496062445467
H -6.69938949944855 -5.369357146417435 0.34264405842263335
O 4.270705989100058 0.278562585062069 2.2566150293849887
H 3.984061984943623 -0.2121791737215195 1.4717742187952503
H 4.106737581455792 -0.3345544012066568 2.9888471419991225
O 1.017244665334046 9.245857744345088 8.029048055580922
H 1.0496359992335185 9.194603512845614 7.061943530650132
H 0.15125167586540122 8.873979531304954 8.254269460330192
O -7.379704332723113 3.0619102195301626 9.059876815890062
H -7.655684009309572 2.9994322718870707 8.133108732133644
H -8.205967928037987 3.2229285247493875 9.539797143383769
O 1.8585763472250068 4.467115146362557 7.529306367830423
H 2.4918020503385803 3.9948300094315923 8.090500910970697
H 1.5194815323011035 3.783316768351762 6.932316896380944
O 3.8365858430019135 -8.283040769827547 -5.468207764703449
H 3.7803082767842935 -8.128691017417129 -4.51323323814713
H 4.6854487631841675 -8.736190887999093 -5.582438484918158
O 3.967688760600337 7.010736007015499 4.799972710573806
H 3.908487818900814 6.610537276491055 3.9194594616737604
H 3.5980025641105406 6.336012011769059 5.38907507066379
O -2.5784214768846803 0.4122853900351624 -5.472004653508117
H -3.1883333668503493 1.1060890178114313 -5.764598859641792
H -2.73639954739339 0.34880575979289163 -4.5180784456268945
O -4.772372441165617 -2.3483366756738135 5.50983251020083
H -5.085447852523915 -2.2275559279711517 4.600787321727111
H -5.573076927340098 -2.578964222820239 6.004448729725909
O 4.316451595163289 -5.280745388838081 3.530560661073827
H 4.838804298338568 -4.492542750457314 3.7423426509480313
H 3.7510469347070634 -5.402680886424552 4.307999564565746
O -7.569092503846669 7.5990902493073555 6.15818892757753
H -7.5560263270681425 7.502133557200663 7.122240809884766
H -7.163658618350878 6.780433593411813 5.835099793514321
O 1.826244473358896 10.130912017102442 -5.443558055956281
H 2.248805740772756 10.965625245382755 -5.191242462471744
H 2.0461424471252925 10.031558846874015 -6.382033294307828
O 2.745995290157155 -2.090314123271339 5.197351397503494
H 3.4937860613065057 -1.623318575355378 4.795242609100988
H 3.102125463567667 -2.9671747494916962 5.405314581916123
O 3.4690931930628772 7.911479034930203 -4.559686032431306
H 3.4491958337810056 8.033024382341727 -3.5985418286220012
H 2.710680543253203 7.335465174189497 -4.738516200868442
O -10.125753154618751 3.5851770068290616 2.2785727326721603
H -9.307537524160582 3.5471870881339886 2.796305583717447
H -10.23748490187123 2.680211268325318 1.9506779735034918
O -0.9710970282262198 1.9571089223579459 -7.670212081668597
H -1.9129082518922218 1.7294611682055985 -7.658572669907626
H -0.7002173206586384 1.8801358253919225 -6.7430328807200635
C 8.846741072117625 -7.767536894404202 -1.1834453924776631
O 9.576942400213168 -7.541118765940327 -2.1045095101428895
O 8.11653974402208 -7.993955022868077 -0.2623812748124372
O -1.9806732764405544 -7.995583888556772 13.681250057518746
H -2.1406303779193987 -8.562522263135381 14.450640700831137
H -1.296094603943085 -7.379592999346865 13.982695259623522
O 9.854060878385761 5.500445513372604 3.963736643134971
H 9.132162816652501 5.8408078414405775 3.4142059060529473
H 9.48136862299261 4.7054387271749345 4.373647166261201
O 9.921232566546546 -13.85046035971666 13.660679961153402
H 9.84696026943754 -13.874914457750563 14.626523105701988
H 10.86557032631365 -13.701853319289876 13.502237267053502
O -6.253882794958303 0.9931111984116636 -16.0798790921395
H -5.962496745244392 1.1594432853794046 -16.988941886327602
H -5.535243510861898 0.468542984308154 -15.696020117507326
O 12.168695496542806 8.374708814888775 -6.734931352895947
H 12.566491549480482 8.987165435433672 -7.371816385784874
H 12.055729459827923 7.554402689784819 -7.238219024079994
O 1.6632885033228542 -18.527176027841033 5.652382206180951
H 1.4380858839222914 -18.06365376693551 4.831773742441905
H 2.539505250847209 -18.90179711548338 5.47669727127899
O 0.5785855877820341 21.978379331899692 -3.2051914364116323
H -0.2054092996616923 21.436138176007987 -3.031140000854988
H 0.9432682327312438 22.1520961462378 -2.324401460770977
O 10.711310451586371 7.718644833909035 -12.684785971956734
H 11.661704880397613 7.8712383153758365 -12.796289406874203
H 10.437755384254476 7.32182941427452 -13.525420905906856
O 10.836599657237677 10.007904058899761 6.648770991688991
H 10.77492663655608 10.71079666733522 5.984613046297381
H 10.324026896632923 9.279549433568 6.267024152613871
O -14.762059052574866 -5.8336260814068 0.9500547811927533
H -14.333883902278233 -6.438703957257139 0.32594408450113255
H -15.68332300166451 -6.133223176603425 0.9718781850862874
O -8.964704506712263 -18.413999238884387 -3.2425427194835663
H -8.14324973567961 -18.03061861284966 -3.5848856931648116
H -8.706855668234416 -19.303492089070218 -2.9574490677410017
O 0.993873027135252 8.889741081301645 -11.95276054850909
H 1.8705894356474353 9.276054097481458 -12.098011880604714
H 1.1820442602063865 8.01867108863607 -11.57224694924872
O -11.415812359544308 1.9989076325634973 -7.159993105080424
H -11.646247449490222 1.3891742467906303 -6.442990856481737
H -12.086308189846227 2.695826013445986 -7.0991485799703495
O -3.7696798137308742 -12.337796487869326 1.2617937268747332
H -3.610066075776777 -12.847137008842564 0.45305208379517
H -2.9753381833978443 -12.490671584915228 1.79528461088595
O -1.776734811201431 15.909411819683857 0.6516955672293029
H -1.5101392151472832 16.83482558849119 0.5444411893869636
H -1.1296927945710404 15.55043956965817 1.2773452269641832
O -16.11707903626034 -3.565966864640435 -3.4015528526250653
H -16.91757021000368 -3.370586084029662 -3.911462244798748
H -15.573065969543622 -2.7709395216019006 -3.5061628491003485
O 2.034859481260346 -6.41797924966532 -6.8035417780521765
H 2.331700945181801 -7.331101561627274 -6.934156270334714
H 1.3415696373151194 -6.491243428689217 -6.13053100796424
O 9.382737253740462 -21.755822773918364 3.865320410233836
H 9.090712976121832 -22.57470655530749 3.4373968998266986
H 8.747989304853306 -21.09157431995468 3.5573740235195177
O -1.5624136363755081 -21.03806648505372 4.339840283079374
H -1.4771683644996998 -20.254718155848252 4.90381368285442
H -0.7592291030446839 -21.02484111666111 3.7979162668658213
O 6.02684678052659 -6.430677951687844 -2.2020211433385235
H 5.772221872652352 -6.818660847264668 -1.3513726930784524
H 5.983426708511532 -7.17488649693418 -2.821077104321485