194

C -5.0710522388059704 1.0783507462686561 0.47044029850746183
C -3.8153522388059704 0.1782507462686569 0.19534029850746193
C -4.11845223880597 -1.3219492537313435 0.5608402985074619
C -2.96945223880597 -2.3874492537313436 0.7034402985074619
C -2.52015223880597 0.7359507462686565 0.7384402985074618
C -2.20305223880597 0.7852507462686571 2.097440298507462
C -1.5755522388059702 1.205650746268656 -0.18965970149253808
C -0.9533522388059701 1.2695507462686564 2.508640298507462
H -2.91125223880597 0.4298507462686567 2.840840298507462
C -0.32655223880597006 1.6562507462686575 0.21554029850746192
H -1.7850522388059702 1.178550746268657 -1.2573597014925382
C 0.004447761194029898 1.6956507462686563 1.569740298507462
H -0.7158522388059702 1.2676507462686573 3.5705402985074617
H 0.3943477611940298 1.9193507462686572 -0.5551597014925382
C -1.76045223880597 -2.1592492537313435 -0.1734597014925381
C -0.5287522388059701 -1.936549253731343 0.464840298507462
C -1.8068522388059702 -2.121249253731343 -1.5681597014925381
C 0.6114477611940299 -1.614449253731343 -0.2582597014925381
H -0.4544522388059702 -1.954049253731343 1.5506402985074619
C -0.6479522388059701 -1.8270492537313432 -2.2998597014925384
H -2.74345223880597 -2.290549253731343 -2.092259701492538
C 0.5698477611940298 -1.5506492537313434 -1.6506597014925382
H 1.5072477611940298 -1.351949253731343 0.2991402985074618
H -0.7173522388059701 -1.7640492537313435 -3.3840597014925375
C 1.7791477611940298 -1.082849253731343 -2.4255597014925376
H 1.4739477611940297 -0.9102492537313429 -3.464259701492538
H 2.1252477611940295 -0.1337492537313434 -2.0010597014925384
C 1.3965477611940298 2.0964507462686566 1.997440298507462
H 1.51704776119403 1.8448507462686567 3.057640298507462
H 2.1256477611940294 1.5207507462686571 1.4165402985074618
C 3.94864776119403 -1.4275492537313434 -3.522959701492538
H 4.81734776119403 -2.087049253731343 -3.615159701492538
H 3.4305477611940303 -1.3641492537313429 -4.484459701492538
H 4.26984776119403 -0.441449253731343 -3.176459701492538
C 2.60904776119403 -3.4296492537313434 -2.8992597014925376
H 1.9825477611940296 -3.869549253731343 -2.119359701492538
H 2.06294776119403 -3.373349253731343 -3.845759701492538
H 3.5215477611940305 -4.019849253731343 -3.0234597014925377
C 3.7281477611940304 -2.060049253731343 -1.156659701492538
H 3.9048477611940298 -1.032549253731343 -0.8295597014925382
H 3.12924776119403 -2.623249253731343 -0.4404597014925382
H 4.68244776119403 -2.5769492537313434 -1.3005597014925383
C 3.1110477611940297 3.755250746268656 2.588740298507462
H 3.40124776119403 4.809350746268656 2.534540298507462
H 2.9823477611940303 3.461750746268656 3.634840298507462
H 3.86514776119403 3.1392507462686563 2.091540298507462
C 1.99744776119403 3.9574507462686572 0.40494029850746194
H 2.67914776119403 3.230350746268657 -0.04295970149253803
H 1.03214776119403 3.981150746268657 -0.10175970149253821
H 2.4399477611940297 4.958250746268657 0.368240298507462
C 0.7418477611940297 4.4992507462686575 2.475440298507462
H -0.18475223880597014 4.424250746268656 1.901240298507462
H 0.57844776119403 4.189650746268656 3.511940298507462
H 1.1210477611940297 5.524350746268658 2.4432402985074617
N 3.00114776119403 -2.025349253731343 -2.490159701492538
N 1.7831477611940298 3.586450746268657 1.862540298507462
C -3.55075223880597 -3.8435492537313434 0.6444402985074619
H -2.62515223880597 -2.2736492537313433 1.7424402985074618
H -4.67195223880597 -1.3478492537313436 1.5102402985074619
H -4.83415223880597 -1.6757492537313432 -0.1945597014925382
H -3.7169522388059697 0.17335074626865676 -0.900559701492538
H -3.9132522388059705 -4.043149253731343 -0.34225970149253815
H -4.35435223880597 -3.9354492537313432 1.3449402985074619
H -2.78115223880597 -4.545049253731343 0.8904402985074619
H -5.24235223880597 1.138950746268657 1.5249402985074618
H -5.92805223880597 0.6501507462686567 -0.006059701492538094
H -4.89895223880597 2.059650746268657 0.08004029850746197
C 2.157994960744278 -1.9585650854525953 2.978786285239279
O 2.4870493512786447 -2.9877349352560674 3.548266861664458
O 2.8663614909143407 -1.3233675933071054 2.1892468821649893
O 1.0656947671973063 -1.392989103032845 3.10389615570194
O 0.06782627713851874 -6.5883161839055795 4.655357588162461
H -0.7604133757802309 -6.280534470481727 5.053172684802732
H -0.21940136033507707 -7.111157067857897 3.891747976751437
O 6.963978254308359 6.916409241408597 -0.8732477095241453
H 7.396024477204764 6.5070237797629 -1.6379090476170877
H 7.53983603658289 6.687000338097655 -0.128451553535454
O 4.346494474730053 -6.851048019338151 -3.8095378067654133
H 3.562976978152377 -6.565210698858234 -4.3028579013059804
H 4.590399678017793 -6.072815768859471 -3.2862532183968525
O 0.7764386279489808 -6.052183010605087 0.285812315718343
H 0.9313983205478041 -6.424949438539847 1.1667209606835511
H 1.62603651997713 -5.651071972945347 0.04863031465407269
O -6.769229473746921 2.2847052702744772 -5.334848230554185
H -6.344923211774349 2.9757293008922225 -5.865336064589678
H -6.271854654617776 1.4825836249697226 -5.5543501661489385
O -3.178302703146443 -5.491394784990293 -6.261739379692984
H -2.715410188530726 -5.4367745688289775 -5.412201558993264
H -2.5301126266686707 -5.1633485587895 -6.902986011287379
O 6.621997475506505 -5.187992861630127 5.320871261867875
H 5.854376933731733 -5.226317918426286 5.911004510183014
H 7.155556608543673 -5.953953777986649 5.580833702360541
O -6.214346183157838 0.5336066844322289 4.877348006056021
H -5.874031666642767 1.2984261271072945 4.3892859128185755
H -6.908011460477918 0.17828111583338635 4.301557968246782
O 4.352633874875005 5.25865900799454 -2.417213672579704
H 4.1733852431716745 4.632024491900348 -3.1342676929797597
H 3.4720646724425275 5.539688455683218 -2.126383355110523
O -1.3700332404958766 -4.152298557455965 4.886230697207196
H -1.0077566957438038 -4.452636170671812 4.039164949989008
H -1.3179545780035853 -3.186126259477291 4.833686926580965
O -0.5346374604216901 7.416683965309008 -8.607025418882328
H -0.6476867314198955 7.355222296567906 -9.567447035935139
H -0.8715762599196824 8.29833161070196 -8.387636223464877
O 7.389839320100638 -7.571943149088886 -0.08183267504401748
H 7.29516791181702 -8.483880145464896 0.23181616680670558
H 6.57195449806234 -7.139323405249194 0.20603277863088731
O 5.965319352909812 3.522741226651252 3.595733223951557
H 6.661396185397394 3.9933724693093353 4.078382821079912
H 5.983206212234668 3.9203993215202524 2.712268428869915
O 2.127214625595336 -7.437756634631035 4.881673107719635
H 2.097006887183333 -7.445413597569514 3.9131710579754992
H 2.6686564378426305 -8.209700689962402 5.105067565325297
O -2.365203995723646 3.043707215148734 8.277872991518347
H -2.6752941555837877 2.79627413667255 9.16194783073373
H -2.244619978195031 2.1949947066374547 7.826089285622317
O -2.708793046402037 3.6315365398427883 -7.363932876404775
H -1.9334272273255748 3.141928858573059 -7.677077446770552
H -2.8957406243962716 3.2435372888428624 -6.495906881053492
O -7.909529814394302 -1.3375750840333835 6.29306463442827
H -7.459150099225038 -1.7832818344518193 7.026188745132245
H -7.722354977025347 -0.3982157675621294 6.439801129938295
O 4.192513738861049 2.7618263240799505 -9.313747297501948
H 3.714971365943875 3.0391821260509198 -10.109984949262826
H 3.4933622053347215 2.4588163166316686 -8.71513723005071
O -3.7787122636564923 12.269472055999547 1.289943375572256
H -3.5186165894433303 12.849470741906138 2.021325027996096
H -3.639016545678129 11.37620411815355 1.6385397638135455
O -4.685313776620582 3.5475939323163876 7.491450477442877
H -4.961742906718243 2.9102255210065517 6.815938966661731
H -4.981037564531331 4.401755581084612 7.142283950786519
C -1.8877050501698793 13.622805818583313 -17.63110124957417
O -1.7009972655748635 13.419662351259934 -18.795872124963594
O -2.0744128347648942 13.825949285906692 -16.46633037418474
O -6.916613775341413 -1.960969900294828 -18.458018016105438
H -6.736185512248825 -2.9129087163651843 -18.47303431511557
H -6.165715197995403 -1.572917966814079 -18.93186289342458
O 6.419007268190487 0.5030888583727986 22.02994550094961
H 6.975887092380059 -0.03970804237456349 22.60806637312917
H 6.067006934666771 1.1872197763059464 22.619031739650822
O 18.930198890302705 11.078832491210592 3.7047679309132597
H 18.96788239043247 10.169794224441903 4.038229683244991
H 19.122992726364398 10.9895154832396 2.7593500586664295
O -8.692137453247268 -10.881046757244533 -13.2207584040084
H -8.511705222455804 -9.954438438775675 -13.439410161686972
H -8.493728657089296 -10.941086739568291 -12.27419034283704
O -2.000869343472634 4.648103485386386 18.66999573315792
H -1.3024613772173181 5.215326045047346 19.029790448770555
H -1.9641545809025276 3.8527368471237855 19.222269108623607
O -4.177883485065191 17.270615678934668 -15.956387910146411
H -3.298830584951396 17.03536816991972 -15.623383457918232
H -4.384418372364696 16.566731671050245 -16.589517113447556
O -0.37630480185075665 22.43741034053555 -1.5588746121834838
H 0.5612154738924571 22.237909923098265 -1.416668167488746
H -0.3791828258104504 23.367858203212514 -1.8294673617499768
O 17.11994050081367 2.9917676915197493 -11.018505410379216
H 16.54717061296275 2.546104390536163 -11.660600601630215
H 16.614851610065237 2.959301705649626 -10.192192445151152
O -1.309006306891762 -12.798610225238422 6.6552934025669535
H -1.2505991966250738 -12.14279771729673 7.366254667895469
H -2.137735270508354 -13.26697884663967 6.836404097032146
O 4.0135771868723555 8.368547664687846 -16.960835070798936
H 4.1224853641193135 8.890721943826755 -16.151860171290608
H 4.891904283069399 7.98926813534302 -17.11462224518626
O -8.199228238203414 -6.83810338937564 9.064743229533212
H -7.922679048787415 -6.605819478618102 9.963927352800821
H -7.397249905424628 -7.20092503646171 8.659585049979704
O -10.698890046273176 -1.246661046195367 15.435593266763899
H -11.055402530763102 -1.5084176951992223 14.573415986846891
H -11.436455415058298 -1.390616568703095 16.0473416452729
O 15.248625870224712 1.8149378049381402 5.358712654866938
H 15.533702088790257 2.1446592820892585 4.493274815381249
H 15.93678687872579 1.1787831346852613 5.605093673198759
O -13.100061201690398 -9.670279804775895 12.684884567571771
H -14.00375978985591 -9.395579098761441 12.901300234201576
H -12.56511336937881 -8.8846414295519 12.873471694334269
O -12.276285902693205 -3.525951621948364 16.874534099593
H -13.227582759659692 -3.344375008269621 16.90665232168962
H -12.033523512585154 -3.340511316748005 15.954947094760817
O 11.587856768647827 -7.782934166239006 13.209038171769741
H 10.680138826084097 -7.59579581648203 12.926204772578437
H 11.758658702137277 -8.675344003565685 12.872298916471474
O 3.9940513878444044 -10.144053841597186 -2.7997017674531035
H 3.683672185593766 -10.37123970170185 -1.910309450936504
H 4.6872604736816434 -9.48502355067236 -2.644452988854887
O 1.072387072503608 -5.35872904619659 -18.19627270787859
H 0.4420400160526239 -5.519783041635947 -17.47815603499277
H 0.7793377791676462 -4.519053882184165 -18.581018955314484
O -12.196867748977107 -11.19523714617004 -2.751637180229455
H -12.65292951968588 -10.418853971358198 -3.109693298829688
H -12.463489315599551 -11.214435584374268 -1.8202369953023139
O -8.474968348102944 -5.3884069648815505 -13.781574173370531
H -7.506570601644189 -5.416132427934835 -13.761462976188795
H -8.740595751929849 -5.942428219345864 -13.032264840559328