194

C -5.0710522388059704 1.0783507462686561 0.47044029850746183
C -3.8153522388059704 0.1782507462686569 0.19534029850746193
C -4.11845223880597 -1.3219492537313435 0.5608402985074619
C -2.96945223880597 -2.3874492537313436 0.7034402985074619
C -2.52015223880597 0.7359507462686565 0.7384402985074618
C -2.20305223880597 0.7852507462686571 2.097440298507462
C -1.5755522388059702 1.205650746268656 -0.18965970149253808
C -0.9533522388059701 1.2695507462686564 2.508640298507462
H -2.91125223880597 0.4298507462686567 2.840840298507462
C -0.32655223880597006 1.6562507462686575 0.21554029850746192
H -1.7850522388059702 1.178550746268657 -1.2573597014925382
C 0.004447761194029898 1.6956507462686563 1.569740298507462
H -0.7158522388059702 1.2676507462686573 3.5705402985074617
H 0.3943477611940298 1.9193507462686572 -0.5551597014925382
C -1.76045223880597 -2.1592492537313435 -0.1734597014925381
C -0.5287522388059701 -1.936549253731343 0.464840298507462
C -1.8068522388059702 -2.121249253731343 -1.5681597014925381
C 0.6114477611940299 -1.614449253731343 -0.2582597014925381
H -0.4544522388059702 -1.954049253731343 1.5506402985074619
C -0.6479522388059701 -1.8270492537313432 -2.2998597014925384
H -2.74345223880597 -2.290549253731343 -2.092259701492538
C 0.5698477611940298 -1.5506492537313434 -1.6506597014925382
H 1.5072477611940298 -1.351949253731343 0.2991402985074618
H -0.7173522388059701 -1.7640492537313435 -3.3840597014925375
C 1.7791477611940298 -1.082849253731343 -2.4255597014925376
H 1.4739477611940297 -0.9102492537313429 -3.464259701492538
H 2.1252477611940295 -0.1337492537313434 -2.0010597014925384
C 1.3965477611940298 2.0964507462686566 1.997440298507462
H 1.51704776119403 1.8448507462686567 3.057640298507462
H 2.1256477611940294 1.5207507462686571 1.4165402985074618
C 3.94864776119403 -1.4275492537313434 -3.522959701492538
H 4.81734776119403 -2.087049253731343 -3.615159701492538
H 3.4305477611940303 -1.3641492537313429 -4.484459701492538
H 4.26984776119403 -0.441449253731343 -3.176459701492538
C 2.60904776119403 -3.4296492537313434 -2.8992597014925376
H 1.9825477611940296 -3.869549253731343 -2.119359701492538
H 2.06294776119403 -3.373349253731343 -3.845759701492538
H 3.5215477611940305 -4.019849253731343 -3.0234597014925377
C 3.7281477611940304 -2.060049253731343 -1.156659701492538
H 3.9048477611940298 -1.032549253731343 -0.8295597014925382
H 3.12924776119403 -2.623249253731343 -0.4404597014925382
H 4.68244776119403 -2.5769492537313434 -1.3005597014925383
C 3.1110477611940297 3.755250746268656 2.588740298507462
H 3.40124776119403 4.809350746268656 2.534540298507462
H 2.9823477611940303 3.461750746268656 3.634840298507462
H 3.86514776119403 3.1392507462686563 2.091540298507462
C 1.99744776119403 3.9574507462686572 0.40494029850746194
H 2.67914776119403 3.230350746268657 -0.04295970149253803
H 1.03214776119403 3.981150746268657 -0.10175970149253821
H 2.4399477611940297 4.958250746268657 0.368240298507462
C 0.7418477611940297 4.4992507462686575 2.475440298507462
H -0.18475223880597014 4.424250746268656 1.901240298507462
H 0.57844776119403 4.189650746268656 3.511940298507462
H 1.1210477611940297 5.524350746268658 2.4432402985074617
N 3.00114776119403 -2.025349253731343 -2.490159701492538
N 1.7831477611940298 3.586450746268657 1.862540298507462
C -3.55075223880597 -3.8435492537313434 0.6444402985074619
H -2.62515223880597 -2.2736492537313433 1.7424402985074618
H -4.67195223880597 -1.3478492537313436 1.5102402985074619
H -4.83415223880597 -1.6757492537313432 -0.1945597014925382
H -3.7169522388059697 0.17335074626865676 -0.900559701492538
H -3.9132522388059705 -4.043149253731343 -0.34225970149253815
H -4.35435223880597 -3.9354492537313432 1.3449402985074619
H -2.78115223880597 -4.545049253731343 0.8904402985074619
H -5.24235223880597 1.138950746268657 1.5249402985074618
H -5.92805223880597 0.6501507462686567 -0.006059701492538094
H -4.89895223880597 2.059650746268657 0.08004029850746197
C 2.092301143650131 -1.8720637806081704 3.158607336041732
O 2.120429628280618 -2.603837335475583 2.1811147522595835
O 2.6120693881000117 -2.1232826417872506 4.251933234367284
O 1.5397067359096404 -0.7670456871928344 3.2057541085577044
O -7.199601306280133 -1.1818263838365857 6.582146983499246
H -7.685670644929807 -1.7157931002717506 5.935939972809854
H -7.646640222082615 -0.32241185291743957 6.5592381183339
O -4.139099189455136 1.3594314619454524 -2.8455559767414758
H -3.598167204363024 0.6767481275515466 -3.2701774662413916
H -5.01488030843377 1.24577638794017 -3.244369090985959
O 3.9200723054288105 7.5496315469998265 0.49716674741260825
H 3.5559799064743554 7.443858502998234 1.388915672327143
H 4.225770070070773 8.4689200265457 0.4766847463593633
O 4.065301835600813 -4.411109067954969 3.751886093603752
H 4.5277280376739695 -3.7205687047016553 3.2536056793246244
H 4.282918403285762 -5.227562685482825 3.2775355226177982
O 1.33287452907966 2.3285788719629332 7.503575863774747
H 1.8344692166175132 2.2612495379887045 8.32991531407371
H 1.156796976069693 3.277159422424343 7.413278693761788
O 0.15441906443027298 -4.747291672380774 -6.7264206439875895
H 0.25560863793346233 -5.057548082307547 -7.638818028471782
H -0.6368758326973075 -5.207795307987372 -6.4090080864651195
O 6.403354120146483 -3.2368667950821965 -8.40230092571127
H 6.289739870328886 -3.3746343219201504 -7.449893834343646
H 5.534663542546541 -2.926724691578031 -8.69920242507274
O -4.749721903106895 -1.2144440963371208 5.624200582897358
H -4.361542252082311 -0.4409881703416697 5.188253515040547
H -3.993016442863065 -1.7990436139195372 5.781051450856637
O 4.3207852960586965 -0.6813643670036864 8.199018346203713
H 4.110756308532812 -0.4993881762286905 9.127317784580079
H 4.730207190246903 0.13938435201826183 7.8864368414994654
O -7.900695388396817 -1.1999031199018908 2.612658231111134
H -7.880279938286188 -1.156778482119181 3.5804861248571718
H -7.003549075648865 -0.9467142698083943 2.348109853661778
O -2.829588428776304 -0.8510970700133582 -10.401147753227095
H -3.4865251320602786 -0.4055548649073706 -10.956929786264936
H -3.287386572754789 -0.9824838706371812 -9.557275539979326
O -4.9551049799641165 -0.39449989431004107 -7.228666263857758
H -4.5105430443025885 0.35469848022475836 -7.652970208990596
H -4.260022548733695 -1.0650269332000724 -7.149825613098314
O 1.2723322758830218 -5.0789446106400735 0.8558058805053855
H 1.902238587489565 -5.147390432587385 1.5889501807329727
H 0.43336020442925965 -5.375209442296127 1.2396221870172277
O -0.7163611800741361 0.9437822352921859 11.233534019562772
H -1.3663820875201722 0.8228166607445462 10.525150291236525
H -1.2529220577863374 0.9821444054789268 12.03950716595617
O 3.774480669185098 0.6653567804196041 -8.260401171614415
H 4.247709173192678 0.2037366576155626 -8.96887065022103
H 4.040101436960698 0.194641550063344 -7.456140813311859
O 6.917125346292413 -3.7260022294830306 5.613175792681389
H 5.992517859234143 -3.8968027849225453 5.378877858338502
H 6.866774809225362 -2.994370389067078 6.2465332097901065
O 9.08009113529075 1.6741698351412673 3.6887963467634224
H 9.673915804444091 2.432070069559209 3.5795862104474487
H 8.194537348232766 2.0540123872886045 3.586443671637368
O -3.3177107830024424 4.194543634925704 8.048245171362804
H -3.363035322852961 4.171736723093762 7.08057121399905
H -3.832522805598799 4.979614064398254 8.288234642919441
O -3.43997007313265 -2.673138574307875 8.49028155452712
H -3.988092328402184 -3.4711275167105358 8.532030781841199
H -3.8264456830101765 -2.161466847746823 7.763789578310023
O -6.087224241941176 -5.68453650105083 -6.3703760181946025
H -6.219697172219115 -5.127854775464351 -5.588376186965952
H -5.192219551941343 -5.461656819526653 -6.667450414166359
C 6.009218301843092 -6.490855085958067 -10.805466008177822
O 5.109696626483245 -6.80745419526714 -11.528960318343783
O 6.908739977202936 -6.174255976648995 -10.081971698011861
O 6.791297116039295 -10.393304204773516 -16.80414163250709
H 5.965944525526498 -9.897014549672775 -16.697104085478923
H 7.3031954712557665 -9.863271517708446 -17.433416905236957
O -8.881681957034592 14.85879859975007 12.057181591737322
H -8.445087442690701 15.657408331747899 12.389709910686523
H -8.827271227021876 14.946246127134584 11.093670124906843
O -12.061994080339833 15.794201341447978 6.7850493200094535
H -11.336506059956797 16.03832765937544 6.1908802951723425
H -11.677821432194024 15.878812930507722 7.670608013554619
O -7.678319913391315 12.824845943574715 11.37334257439319
H -7.631615605883861 13.1090709441335 12.298546451177982
H -8.616840260844324 12.912413619613528 11.148679707346036
O 2.07465496028467 13.269538777144144 -2.328756231899746
H 1.8186236384755154 12.389724402566907 -2.013570595425106
H 2.9733607808136 13.144026480719777 -2.6686627718393368
O -18.8074203174342 10.042779577201838 -1.1458639464375198
H -18.50273546407319 9.298761586115408 -1.6867629443771452
H -17.988434269672798 10.466487656349628 -0.8480464494077964
O -8.866562035581675 -11.334929901032964 -7.534070167655839
H -9.658634732332175 -10.908044715963316 -7.893732841185416
H -8.481754525383511 -10.662184809783525 -6.952435259319971
O -9.93886438477831 10.407278297417655 3.086719617608518
H -9.661888898735553 10.780155974919381 2.2362996186360693
H -10.739427544305705 10.90506072098227 3.3109365453763533
O 18.210444766838297 -5.081847062233594 11.999615131882795
H 17.90916131578158 -5.494385495367826 11.176202914213839
H 18.315202400841915 -4.146729101230196 11.76822329661886
O 1.825510109690165 4.97599704439414 11.272890389643237
H 1.5894659737716976 4.240022026589508 11.857348511296088
H 2.6576032126742537 4.693165995387461 10.864736484866999
O 14.19302776991708 -9.451267289040288 5.304123631992137
H 14.017718618415184 -9.962931535444193 6.10813467498322
H 13.999257088755797 -10.071358138115865 4.585164518888323
O -2.36663797639915 -8.625607916608258 -11.241626108986846
H -2.0224743007441948 -9.201489876571788 -10.542427503833608
H -1.8009903675830938 -8.819504824323253 -12.004127726112502
O 1.894493273335089 6.85738756735238 8.508905284370423
H 1.7975717450367013 7.633616803228935 7.937029644372698
H 2.3250503696820406 7.20500145212611 9.304359317107574
O 7.791494645497237 5.967360748633304 2.1052652330532853
H 6.831370479677523 5.851308636158535 2.1657701939998457
H 8.141839868606112 5.381967357606289 2.7934038431360806
O 10.903336366001419 0.49489473885417423 5.122130426290399
H 11.681684771837626 0.9837604760051595 4.815289413594799
H 10.43099410974513 0.2708962316974768 4.306238640545324
O -16.6671245023502 6.106165901472594 11.888594125890666
H -16.29307194651201 6.5053019090459046 12.688433165841428
H -16.86753410133552 5.195753953678161 12.153071010036882
O 1.2660502042833097 16.35856573807876 -0.6564922110487745
H 1.1856555728590834 15.974051019016173 -1.5422983359781426
H 0.41687709488961655 16.803900978437987 -0.516694148555646
O -7.917991265977257 -10.321904799959318 13.999110939477399
H -7.891849377676686 -10.1766067818035 14.95680214466625
H -7.40500679643365 -9.584190841766613 13.636361722807383
O 5.805032151146115 -8.92725724068939 -2.757473124564691
H 6.301345742866362 -8.225955346032015 -2.309348333771182
H 6.439825270135934 -9.656170985255482 -2.8259157528442413
O -2.039167031351454 7.842835206291795 16.699617517431662
H -1.7251603931155186 7.990177560482911 17.604414411052094
H -2.9980741638209025 7.743804840226632 16.797862324908785