194

C -5.0710522388059704 1.0783507462686561 0.47044029850746183
C -3.8153522388059704 0.1782507462686569 0.19534029850746193
C -4.11845223880597 -1.3219492537313435 0.5608402985074619
C -2.96945223880597 -2.3874492537313436 0.7034402985074619
C -2.52015223880597 0.7359507462686565 0.7384402985074618
C -2.20305223880597 0.7852507462686571 2.097440298507462
C -1.5755522388059702 1.205650746268656 -0.18965970149253808
C -0.9533522388059701 1.2695507462686564 2.508640298507462
H -2.91125223880597 0.4298507462686567 2.840840298507462
C -0.32655223880597006 1.6562507462686575 0.21554029850746192
H -1.7850522388059702 1.178550746268657 -1.2573597014925382
C 0.004447761194029898 1.6956507462686563 1.569740298507462
H -0.7158522388059702 1.2676507462686573 3.5705402985074617
H 0.3943477611940298 1.9193507462686572 -0.5551597014925382
C -1.76045223880597 -2.1592492537313435 -0.1734597014925381
C -0.5287522388059701 -1.936549253731343 0.464840298507462
C -1.8068522388059702 -2.121249253731343 -1.5681597014925381
C 0.6114477611940299 -1.614449253731343 -0.2582597014925381
H -0.4544522388059702 -1.954049253731343 1.5506402985074619
C -0.6479522388059701 -1.8270492537313432 -2.2998597014925384
H -2.74345223880597 -2.290549253731343 -2.092259701492538
C 0.5698477611940298 -1.5506492537313434 -1.6506597014925382
H 1.5072477611940298 -1.351949253731343 0.2991402985074618
H -0.7173522388059701 -1.7640492537313435 -3.3840597014925375
C 1.7791477611940298 -1.082849253731343 -2.4255597014925376
H 1.4739477611940297 -0.9102492537313429 -3.464259701492538
H 2.1252477611940295 -0.1337492537313434 -2.0010597014925384
C 1.3965477611940298 2.0964507462686566 1.997440298507462
H 1.51704776119403 1.8448507462686567 3.057640298507462
H 2.1256477611940294 1.5207507462686571 1.4165402985074618
C 3.94864776119403 -1.4275492537313434 -3.522959701492538
H 4.81734776119403 -2.087049253731343 -3.615159701492538
H 3.4305477611940303 -1.3641492537313429 -4.484459701492538
H 4.26984776119403 -0.441449253731343 -3.176459701492538
C 2.60904776119403 -3.4296492537313434 -2.8992597014925376
H 1.9825477611940296 -3.869549253731343 -2.119359701492538
H 2.06294776119403 -3.373349253731343 -3.845759701492538
H 3.5215477611940305 -4.019849253731343 -3.0234597014925377
C 3.7281477611940304 -2.060049253731343 -1.156659701492538
H 3.9048477611940298 -1.032549253731343 -0.8295597014925382
H 3.12924776119403 -2.623249253731343 -0.4404597014925382
H 4.68244776119403 -2.5769492537313434 -1.3005597014925383
C 3.1110477611940297 3.755250746268656 2.588740298507462
H 3.40124776119403 4.809350746268656 2.534540298507462
H 2.9823477611940303 3.461750746268656 3.634840298507462
H 3.86514776119403 3.1392507462686563 2.091540298507462
C 1.99744776119403 3.9574507462686572 0.40494029850746194
H 2.67914776119403 3.230350746268657 -0.04295970149253803
H 1.03214776119403 3.981150746268657 -0.10175970149253821
H 2.4399477611940297 4.958250746268657 0.368240298507462
C 0.7418477611940297 4.4992507462686575 2.475440298507462
H -0.18475223880597014 4.424250746268656 1.901240298507462
H 0.57844776119403 4.189650746268656 3.511940298507462
H 1.1210477611940297 5.524350746268658 2.4432402985074617
N 3.00114776119403 -2.025349253731343 -2.490159701492538
N 1.7831477611940298 3.586450746268657 1.862540298507462
C -3.55075223880597 -3.8435492537313434 0.6444402985074619
H -2.62515223880597 -2.2736492537313433 1.7424402985074618
H -4.67195223880597 -1.3478492537313436 1.5102402985074619
H -4.83415223880597 -1.6757492537313432 -0.1945597014925382
H -3.7169522388059697 0.17335074626865676 -0.900559701492538
H -3.9132522388059705 -4.043149253731343 -0.34225970149253815
H -4.35435223880597 -3.9354492537313432 1.3449402985074619
H -2.78115223880597 -4.545049253731343 0.8904402985074619
H -5.24235223880597 1.138950746268657 1.5249402985074618
H -5.92805223880597 0.6501507462686567 -0.006059701492538094
H -4.89895223880597 2.059650746268657 0.08004029850746197
C 2.2653347039411043 -2.4006860805480845 3.3405354659790683
O 1.7203345043922302 -3.475505027824692 3.141752892127908
O 2.6304721738591406 -1.6133012290431057 2.4600065409673246
O 2.5360702804557818 -1.934038577126433 4.453006022694888
O -1.3748274444292266 -8.336413052462449 -7.17022536141106
H -1.412736544618408 -7.790079091438942 -7.969631053194157
H -1.5397558674062237 -7.709337412652706 -6.450130436035577
O -8.942140248921964 1.974473909966197 -0.631373131186078
H -8.941960153925667 2.7344431607293638 -0.030195900778717366
H -9.668909358331966 2.1612091889654907 -1.244478783977217
O -7.6525589110552525 -6.391948007881112 0.4292717795111054
H -8.436449235471162 -5.851021038826181 0.25071834119034264
H -7.112896219961592 -6.292811916735946 -0.3694134898998209
O 9.872224822218884 2.1228488455044117 4.463510724607222
H 9.296928666338701 1.3529118321553477 4.586793673163006
H 10.08084330726178 2.4061134405165356 5.366395789945565
O -8.371169014790494 -6.225191993697762 -6.505588785861273
H -8.521862964790312 -6.164821771554678 -7.460897179319558
H -7.865833275629488 -5.425052162099297 -6.297324566860074
O 4.659192604299102 3.341808361282932 -6.737558853359413
H 4.791798033762348 3.1858957647758666 -5.79041872685896
H 4.053055898363662 2.6359528042417177 -7.008350601039748
O 0.008368846966360824 -6.913799535850564 2.991561034607865
H -0.5583427493970349 -7.69320167007976 3.09323520343273
H 0.7319134071928557 -7.222698014811554 2.425851795367217
O 5.821089409165045 5.899195114814239 -0.507759691687707
H 5.22818422923871 5.159490304697808 -0.3070918108319628
H 6.5974703229168465 5.734305849858163 0.048123525691773195
O 2.192715948536648 0.17445695594393917 6.341068234627367
H 2.014856617872768 -0.778061860768096 6.347496236284312
H 1.661342089338615 0.5067993093033062 5.6020470399214615
O 3.2030585224642545 2.664535700923869 -2.776021808898908
H 3.748499219127297 1.867463414857546 -2.8543644799584404
H 2.7887034589565918 2.7512074215329783 -3.6476638446522425
O 3.8921392433020223 4.9188194449627645 7.253777787832282
H 4.125379706413776 5.205737446947675 6.358096871766521
H 4.45621580744306 4.145820895206821 7.406266528931578
O 9.054949178438005 5.149259743234461 2.636705827844212
H 9.437461220759662 5.350549613181538 3.503962584886556
H 8.999343446841802 6.012194840947977 2.1994267818703443
O 0.6379149934148549 8.16377999137409 -0.60939767825371
H 1.3571486286683778 8.301643047333476 -1.2439558809597684
H 0.8460242313536923 8.771646900475751 0.11596451417412013
O 4.639354018404372 -6.684347243113601 -1.3273034224971285
H 4.997106573955493 -7.0103265533964745 -0.4878286133669534
H 5.350558192713657 -6.132797314498243 -1.6863901014333436
O -2.376018887416692 -9.991179762918776 2.088410721495953
H -2.6889960185090143 -10.473898975891466 2.868150956279465
H -2.3596042910338 -9.066219088753078 2.37675124340109
O -4.181162658583233 5.069647136613571 6.927190980669784
H -4.4710989117135895 4.867391798323189 6.024973100025771
H -4.491556663855835 4.313619591990178 7.447805864784283
O -3.3863302926795047 4.5841225680097315 -5.261633990215345
H -3.4135791436668135 4.502141951020153 -6.226778557343959
H -3.05669156984636 5.483010483641975 -5.112299560698054
O 7.1791114330046515 -6.457225837154615 -3.2377561680577305
H 6.651579311263627 -5.92459359917842 -3.8517432334751414
H 7.699401388511752 -5.802887729582131 -2.747754180840455
O -5.7024425747529 8.830759439155614 0.9547815942510831
H -4.740770940191902 8.896047450374414 0.8553205477460679
H -5.84679611715568 8.934327605668692 1.907355808672662
O -3.648196883191883 1.024642979838529 6.83648333687097
H -4.0924570791212345 0.9173980523069103 5.982025168947253
H -2.889964955592964 1.5938120861791232 6.63625142968064
C 10.062719248315993 5.496065401734631 6.521882123239148
O 10.785826396137699 5.471150831468966 5.568302774544119
O 9.33961210049429 5.520979972000296 7.475461471934177
O 0.13857210513017892 -16.33595550488094 4.59978336419673
H -0.03644499064023843 -15.63918446394587 3.94951688835598
H 0.026633807885770633 -17.157540023272098 4.098354764045128
O -0.84366023979993 -4.286951092949609 -13.639345996408698
H -0.7316324351705239 -4.033838414915607 -14.567974608991992
H -0.03507964592385604 -4.778911497816419 -13.431657942947986
O -10.754111799187228 6.631171637928647 -16.860615457397277
H -10.52693988169008 7.541169596589681 -17.10405742591015
H -10.56870429589543 6.589848462034437 -15.910416321869823
O 3.725536169226855 4.653285995626541 -9.899520586607522
H 3.6694956897837554 4.304554323716641 -8.997183043018257
H 4.429297469235401 5.317569420249373 -9.8504338401107
O 19.638164949218684 9.365900341431388 -0.3400583846417682
H 19.347294676974833 8.680146196209073 0.279702128730289
H 19.964749471041756 10.075886060832069 0.23285065931956694
O 0.29646288869784865 14.026513671770246 4.0125630364201195
H 0.15275550052494058 14.716840586338405 3.347909521792139
H 0.5025143829890757 13.23726169231702 3.4895085087372824
O -1.0122767085169369 14.272395708651684 -15.315729433636724
H -1.2990335230731966 14.324627682189734 -14.391602977384188
H -1.614975615213969 13.62508250101003 -15.711584941845054
O 1.518049312435644 -12.018253026739725 -16.610406535871405
H 1.5488441342304968 -11.927627409265178 -17.574671039681423
H 2.277153845125266 -11.500754992611348 -16.302318825270454
O -17.89203996281443 6.459907721583339 10.66502366059216
H -17.737848380830037 6.6758133085349005 11.596998494194576
H -18.175936267044733 5.533606758941962 10.683226939253773
O 6.190826721950685 -6.487323611715417 -10.874370250224702
H 5.61114633780085 -5.86109160096389 -10.415271701063414
H 5.666143659357061 -6.776957870123001 -11.63580417676335
O 3.3806590246530908 16.61014957465162 7.873271269515399
H 3.5223163323179545 16.781954137053347 8.816342717722318
H 2.9418485751065333 15.746372553931913 7.856049418704957
O 4.972587578664758 0.9772681290207978 -5.233732695360639
H 5.570993393444199 0.47550931246404193 -4.660046432891579
H 4.094688629609857 0.6277441482161275 -5.019050683094225
O -4.543116722388589 6.726120315774997 12.972446984324757
H -4.208661169860786 6.174576095303003 13.695569251404994
H -4.924070313616315 6.089318058051008 12.349294362418751
O -2.6879585947135407 8.998518488905887 -12.250319522958124
H -2.5822141891701964 8.349311128965203 -11.53876117581073
H -1.8247745498642667 9.436245487626891 -12.29796743590663
O 12.591190906985041 -1.2809154205725646 4.209985595285065
H 13.181687373067149 -1.257685841222094 4.977931991257949
H 12.726795084944321 -2.1649656662095564 3.837120184702155
O 0.2555076759563344 6.280495282851636 6.341385730231487
H -0.35716792404749376 5.8892610166508375 6.982113219114454
H 0.8613347592888747 5.556042009107092 6.124353604587383
O -7.100513655625794 -2.5847393661811773 13.627633680081662
H -6.749379818890359 -3.3863254990559772 14.043725084922327
H -7.983275176293674 -2.4873130329621875 14.015192903328426
O 12.402253619951392 7.523134074641404 -7.490674891135182
H 12.500806231434803 7.601635960965371 -8.451451760919934
H 13.309397978421895 7.404782340166403 -7.171231744171759
O 10.26268236779468 3.9481732456589156 13.522955179619471
H 10.057461212617582 3.973487338036759 14.469639303863069
H 9.435067668487703 3.6567345868057832 13.111762570351129
O 5.198703082820705 0.35634619804989676 -14.14713640495667
H 5.905329616884324 0.41867474986350217 -13.487014105768061
H 5.36247614353452 1.107519049747422 -14.73694965994255