194

C -5.0710522388059704 1.0783507462686561 0.47044029850746183
C -3.8153522388059704 0.1782507462686569 0.19534029850746193
C -4.11845223880597 -1.3219492537313435 0.5608402985074619
C -2.96945223880597 -2.3874492537313436 0.7034402985074619
C -2.52015223880597 0.7359507462686565 0.7384402985074618
C -2.20305223880597 0.7852507462686571 2.097440298507462
C -1.5755522388059702 1.205650746268656 -0.18965970149253808
C -0.9533522388059701 1.2695507462686564 2.508640298507462
H -2.91125223880597 0.4298507462686567 2.840840298507462
C -0.32655223880597006 1.6562507462686575 0.21554029850746192
H -1.7850522388059702 1.178550746268657 -1.2573597014925382
C 0.004447761194029898 1.6956507462686563 1.569740298507462
H -0.7158522388059702 1.2676507462686573 3.5705402985074617
H 0.3943477611940298 1.9193507462686572 -0.5551597014925382
C -1.76045223880597 -2.1592492537313435 -0.1734597014925381
C -0.5287522388059701 -1.936549253731343 0.464840298507462
C -1.8068522388059702 -2.121249253731343 -1.5681597014925381
C 0.6114477611940299 -1.614449253731343 -0.2582597014925381
H -0.4544522388059702 -1.954049253731343 1.5506402985074619
C -0.6479522388059701 -1.8270492537313432 -2.2998597014925384
H -2.74345223880597 -2.290549253731343 -2.092259701492538
C 0.5698477611940298 -1.5506492537313434 -1.6506597014925382
H 1.5072477611940298 -1.351949253731343 0.2991402985074618
H -0.7173522388059701 -1.7640492537313435 -3.3840597014925375
C 1.7791477611940298 -1.082849253731343 -2.4255597014925376
H 1.4739477611940297 -0.9102492537313429 -3.464259701492538
H 2.1252477611940295 -0.1337492537313434 -2.0010597014925384
C 1.3965477611940298 2.0964507462686566 1.997440298507462
H 1.51704776119403 1.8448507462686567 3.057640298507462
H 2.1256477611940294 1.5207507462686571 1.4165402985074618
C 3.94864776119403 -1.4275492537313434 -3.522959701492538
H 4.81734776119403 -2.087049253731343 -3.615159701492538
H 3.4305477611940303 -1.3641492537313429 -4.484459701492538
H 4.26984776119403 -0.441449253731343 -3.176459701492538
C 2.60904776119403 -3.4296492537313434 -2.8992597014925376
H 1.9825477611940296 -3.869549253731343 -2.119359701492538
H 2.06294776119403 -3.373349253731343 -3.845759701492538
H 3.5215477611940305 -4.019849253731343 -3.0234597014925377
C 3.7281477611940304 -2.060049253731343 -1.156659701492538
H 3.9048477611940298 -1.032549253731343 -0.8295597014925382
H 3.12924776119403 -2.623249253731343 -0.4404597014925382
H 4.68244776119403 -2.5769492537313434 -1.3005597014925383
C 3.1110477611940297 3.755250746268656 2.588740298507462
H 3.40124776119403 4.809350746268656 2.534540298507462
H 2.9823477611940303 3.461750746268656 3.634840298507462
H 3.86514776119403 3.1392507462686563 2.091540298507462
C 1.99744776119403 3.9574507462686572 0.40494029850746194
H 2.67914776119403 3.230350746268657 -0.04295970149253803
H 1.03214776119403 3.981150746268657 -0.10175970149253821
H 2.4399477611940297 4.958250746268657 0.368240298507462
C 0.7418477611940297 4.4992507462686575 2.475440298507462
H -0.18475223880597014 4.424250746268656 1.901240298507462
H 0.57844776119403 4.189650746268656 3.511940298507462
H 1.1210477611940297 5.524350746268658 2.4432402985074617
N 3.00114776119403 -2.025349253731343 -2.490159701492538
N 1.7831477611940298 3.586450746268657 1.862540298507462
C -3.55075223880597 -3.8435492537313434 0.6444402985074619
H -2.62515223880597 -2.2736492537313433 1.7424402985074618
H -4.67195223880597 -1.3478492537313436 1.5102402985074619
H -4.83415223880597 -1.6757492537313432 -0.1945597014925382
H -3.7169522388059697 0.17335074626865676 -0.900559701492538
H -3.9132522388059705 -4.043149253731343 -0.34225970149253815
H -4.35435223880597 -3.9354492537313432 1.3449402985074619
H -2.78115223880597 -4.545049253731343 0.8904402985074619
H -5.24235223880597 1.138950746268657 1.5249402985074618
H -5.92805223880597 0.6501507462686567 -0.006059701492538094
H -4.89895223880597 2.059650746268657 0.08004029850746197
C 1.618784793709807 -1.763877011053872 3.994394304423489
O 0.493099833722786 -1.7588018007698705 3.5204922979922104
O 2.6177532471149245 -2.2509167078392576 3.452650982400422
O 1.93319356996748 -1.282751971994153 5.089069691285703
O 5.688239764557595 -7.062075285272959 -1.870019392774764
H 5.535256224067197 -7.969396853709245 -1.5661592856706203
H 6.627395809473163 -7.050278150749119 -2.1083651399899734
O -4.787837475628675 1.6561280632077096 -6.5096362132251775
H -4.7034555354482785 1.8400315291145808 -5.5619935800037545
H -3.902843415780689 1.3597821133847894 -6.770263411263544
O 6.26300753090179 0.8619699449992813 -0.26904020473372436
H 5.9241673190571555 1.7523449751226252 -0.44620389590643034
H 5.982777214241351 0.3470746177583679 -1.0406072568490035
O -1.7895286118270843 6.241397728239555 -6.735775621907951
H -1.843878251052594 6.222694462004959 -7.703072712489854
H -2.6183336686035914 5.830865792285923 -6.446798716734104
O 1.090060055056028 -4.484603663455074 -5.229144978681921
H 0.39122360060972416 -4.453376920319633 -5.899681970465428
H 0.6768538565984648 -4.94215087748353 -4.4815668029765
O -6.766268848377451 -2.8440041686377078 4.280464652763683
H -7.335142493259078 -2.3572927415537377 3.665271902639807
H -6.7713739795924255 -3.7500808199570326 3.937010166886391
O -6.832415061953863 -1.529239267594575 -4.590177538354109
H -6.613168098868389 -0.7108155994076124 -4.119985210227423
H -7.687767619508477 -1.791193421654569 -4.2177342973690015
O 5.681114851470767 10.626390026714486 2.1347647476601055
H 5.300026426233121 10.127535462604097 2.8729267169569033
H 5.089904458681604 11.387872389879865 2.0369034869582667
O 5.810906344777489 -0.8737498991925026 -6.957939832728046
H 5.52993900642817 -0.7235120938173911 -6.042815079747902
H 5.044176218718622 -0.6039523216163876 -7.485477627798516
O 8.352970985404271 -0.9760188608899103 1.4280293123132972
H 8.678747881167254 -1.1319897619018209 0.5288575550140762
H 7.865595528106416 -1.7851939890488606 1.6440448670602894
O -1.2079259009545553 -1.2326629370425293 8.3359223795624
H -1.7071876834193274 -1.419982575161126 9.145006048069693
H -1.0410480006863618 -0.27912813878040277 8.379340108720916
O 3.3465153188984926 -3.89151442609373 -5.46186557034559
H 3.029873436752419 -4.20787056987582 -6.32129797935884
H 4.0867498082529705 -4.481142759669446 -5.253651081621004
O -5.459424388866035 -4.405668325574718 -2.1718694168680677
H -5.8204054477332114 -3.507742297527338 -2.1229932448188094
H -5.790568278058193 -4.835091262345493 -1.368811753729327
O 6.551294853596395 -4.923679701086115 7.2010303956446675
H 6.550948941396763 -4.038682109010537 6.806383085676411
H 6.625373104262588 -5.5191953439093595 6.440218016518872
O 7.443430701020642 -6.050963910818246 -6.107349122086954
H 7.285874577456227 -5.967697474183966 -7.0598249093684915
H 6.6991586151418465 -5.578734688418155 -5.704831336153176
O -3.155139084313158 -2.4088419898047793 -5.038446431533963
H -2.69493976849598 -2.246446314245308 -4.201301527003698
H -4.022765501098144 -1.9961472292014995 -4.912472705037338
O 8.877125079832847 1.3419150825277413 -3.534731349282197
H 9.0544278393293 0.9888594400723134 -4.419537995790533
H 7.9479689592268965 1.1179015132466112 -3.3752046473842827
O 7.670084016747662 3.898148179004928 -8.991128410857582
H 7.900385120795207 3.3283863647472085 -8.241928682221596
H 7.078031925196458 3.3505433040935673 -9.528311029864522
O 2.014941520814523 5.323633520478339 -7.1454130944717384
H 1.9332624929584585 4.392492709064736 -6.889927903847105
H 2.9716288011869065 5.4714547247512355 -7.188544097717672
O 9.770789519976475 -0.9833709110318147 -1.6602104156698814
H 9.401970307098042 -0.13455601862612854 -1.3730640705041166
H 10.08463979269823 -0.8096824352054939 -2.560372769902499
C 2.8268151564851514 -14.638333292483129 5.265768176557518
O 2.746038158048546 -13.569751818330687 5.799085124461643
O 2.907592154921756 -15.706914766635569 4.732451228653392
O 7.9894995344012845 -12.79858465883467 8.232948402835682
H 7.8547761666824325 -12.822693765382546 7.2736592274188245
H 7.623056004398372 -11.942003478817675 8.499312374986003
O -2.5883359566445407 2.082329288172251 5.930229326184512
H -3.368224803970128 2.647502499348775 5.823833912347332
H -1.8689240050035247 2.6000239096337867 5.538565354078498
O 1.2502498513652887 -16.66217984291155 -6.401161067203172
H 0.8867582598484569 -16.998191318543242 -7.234190183165138
H 2.150455523542715 -16.388008251878734 -6.6322922653355905
O -10.61999337594487 9.545317366742593 2.2303920162967827
H -10.667189167341645 9.493202020010006 3.1968411379836805
H -10.442422004791252 8.633338947917114 1.9552089571466926
O -6.262253893283836 5.301596414130078 2.0153683999984517
H -6.702855481175932 5.484409160683955 2.858823850715554
H -6.351383572393354 4.3427252194971695 1.9077399804007775
O 10.539231538373832 -4.585342192617807 2.918103329297371
H 10.624825188771133 -4.931899427771379 3.818958016066763
H 11.429285872026558 -4.677602770544137 2.5462791595521796
O -16.512813065870553 -15.434025845560871 -9.49070575177727
H -16.53039919448179 -15.414103076128331 -8.52206692938855
H -16.953844264933913 -14.6110248122984 -9.749786289451631
O 13.481947753936163 -2.315880022377849 9.807444585554958
H 13.665172693889717 -3.22347085437385 10.093232723789951
H 12.743592831237411 -2.037889692827421 10.37004153640251
O 4.842280336315694 5.700699666633263 -15.515564097770412
H 3.884629221384211 5.6368893037159 -15.648980500640679
H 4.9508571842800775 5.619457295221748 -14.556099304527036
O 7.362030059326725 -13.744159146353253 1.2478812371088945
H 7.652864541571738 -13.185557639791051 0.5114391024481213
H 6.398454062555272 -13.776547863685963 1.1507513563540879
O 1.4996914713043896 3.543712998894243 6.15386722495234
H 1.423889193188093 2.6855753883084468 5.710221856633815
H 1.26274230244617 3.3532710739340743 7.073948150140371
O 10.061845043607503 4.405564680344188 1.818819850630081
H 10.144147462415223 5.163952460407838 1.2212902331143232
H 10.94979916500464 4.017742071838983 1.8284659340869507
O 14.693440251007688 -5.897494862185297 -4.161740752442765
H 15.355996707207616 -5.5266678474792625 -4.76379857725032
H 15.167178147691873 -6.605317249075628 -3.6996565413273883
O -0.04035238991232859 9.866664122359534 14.660189935029807
H -0.5127560049568691 9.128845800208431 14.24615333653762
H 0.7841777824624883 9.929595986571188 14.155064683621404
O 1.920282787015515 -6.605853134062133 10.440516743552713
H 2.015166271510311 -6.425410782348973 11.387831389791412
H 2.3157428809972345 -7.4833819996320905 10.32864025603423
O 1.3164802189109461 14.076697174127753 -5.14812859051044
H 0.9539032574895039 14.61206602026904 -4.426404611050325
H 2.085884368988495 13.640488291774904 -4.75227380766713
O 4.521598364744239 7.809438081198535 10.433787898002947
H 4.563619674442094 8.158885211285245 9.530965506994928
H 3.7074863798247577 7.284000473077273 10.443734770992371
O -1.2586082615599175 -14.922140441587668 11.062961389343785
H -1.3221242575661156 -14.14947882961924 11.644276371553676
H -2.1812820953692675 -15.144455070983522 10.867484673952571
O -9.338828195811663 6.946728854855868 5.531468547881631
H -10.084292059603072 7.470837454072144 5.860954755345216
H -8.558486618777483 7.451696128956798 5.805397406417714
O -3.9158880199760904 -1.1328489299902804 14.168899244476922
H -3.3614533682054675 -0.570149846495764 14.730093787617196
H -3.2848791986077694 -1.5622594359561133 13.571909773027443