194

C -5.0710522388059704 1.0783507462686561 0.47044029850746183
C -3.8153522388059704 0.1782507462686569 0.19534029850746193
C -4.11845223880597 -1.3219492537313435 0.5608402985074619
C -2.96945223880597 -2.3874492537313436 0.7034402985074619
C -2.52015223880597 0.7359507462686565 0.7384402985074618
C -2.20305223880597 0.7852507462686571 2.097440298507462
C -1.5755522388059702 1.205650746268656 -0.18965970149253808
C -0.9533522388059701 1.2695507462686564 2.508640298507462
H -2.91125223880597 0.4298507462686567 2.840840298507462
C -0.32655223880597006 1.6562507462686575 0.21554029850746192
H -1.7850522388059702 1.178550746268657 -1.2573597014925382
C 0.004447761194029898 1.6956507462686563 1.569740298507462
H -0.7158522388059702 1.2676507462686573 3.5705402985074617
H 0.3943477611940298 1.9193507462686572 -0.5551597014925382
C -1.76045223880597 -2.1592492537313435 -0.1734597014925381
C -0.5287522388059701 -1.936549253731343 0.464840298507462
C -1.8068522388059702 -2.121249253731343 -1.5681597014925381
C 0.6114477611940299 -1.614449253731343 -0.2582597014925381
H -0.4544522388059702 -1.954049253731343 1.5506402985074619
C -0.6479522388059701 -1.8270492537313432 -2.2998597014925384
H -2.74345223880597 -2.290549253731343 -2.092259701492538
C 0.5698477611940298 -1.5506492537313434 -1.6506597014925382
H 1.5072477611940298 -1.351949253731343 0.2991402985074618
H -0.7173522388059701 -1.7640492537313435 -3.3840597014925375
C 1.7791477611940298 -1.082849253731343 -2.4255597014925376
H 1.4739477611940297 -0.9102492537313429 -3.464259701492538
H 2.1252477611940295 -0.1337492537313434 -2.0010597014925384
C 1.3965477611940298 2.0964507462686566 1.997440298507462
H 1.51704776119403 1.8448507462686567 3.057640298507462
H 2.1256477611940294 1.5207507462686571 1.4165402985074618
C 3.94864776119403 -1.4275492537313434 -3.522959701492538
H 4.81734776119403 -2.087049253731343 -3.615159701492538
H 3.4305477611940303 -1.3641492537313429 -4.484459701492538
H 4.26984776119403 -0.441449253731343 -3.176459701492538
C 2.60904776119403 -3.4296492537313434 -2.8992597014925376
H 1.9825477611940296 -3.869549253731343 -2.119359701492538
H 2.06294776119403 -3.373349253731343 -3.845759701492538
H 3.5215477611940305 -4.019849253731343 -3.0234597014925377
C 3.7281477611940304 -2.060049253731343 -1.156659701492538
H 3.9048477611940298 -1.032549253731343 -0.8295597014925382
H 3.12924776119403 -2.623249253731343 -0.4404597014925382
H 4.68244776119403 -2.5769492537313434 -1.3005597014925383
C 3.1110477611940297 3.755250746268656 2.588740298507462
H 3.40124776119403 4.809350746268656 2.534540298507462
H 2.9823477611940303 3.461750746268656 3.634840298507462
H 3.86514776119403 3.1392507462686563 2.091540298507462
C 1.99744776119403 3.9574507462686572 0.40494029850746194
H 2.67914776119403 3.230350746268657 -0.04295970149253803
H 1.03214776119403 3.981150746268657 -0.10175970149253821
H 2.4399477611940297 4.958250746268657 0.368240298507462
C 0.7418477611940297 4.4992507462686575 2.475440298507462
H -0.18475223880597014 4.424250746268656 1.901240298507462
H 0.57844776119403 4.189650746268656 3.511940298507462
H 1.1210477611940297 5.524350746268658 2.4432402985074617
N 3.00114776119403 -2.025349253731343 -2.490159701492538
N 1.7831477611940298 3.586450746268657 1.862540298507462
C -3.55075223880597 -3.8435492537313434 0.6444402985074619
H -2.62515223880597 -2.2736492537313433 1.7424402985074618
H -4.67195223880597 -1.3478492537313436 1.5102402985074619
H -4.83415223880597 -1.6757492537313432 -0.1945597014925382
H -3.7169522388059697 0.17335074626865676 -0.900559701492538
H -3.9132522388059705 -4.043149253731343 -0.34225970149253815
H -4.35435223880597 -3.9354492537313432 1.3449402985074619
H -2.78115223880597 -4.545049253731343 0.8904402985074619
H -5.24235223880597 1.138950746268657 1.5249402985074618
H -5.92805223880597 0.6501507462686567 -0.006059701492538094
H -4.89895223880597 2.059650746268657 0.08004029850746197
C 0.2095662750544287 1.0611817401826884 -4.196273640784631
O -0.7410587917253493 0.41588594770583964 -3.7819297965904433
O 0.6038002528054878 2.133088077609305 -3.722746620783413
O 0.9244671454553575 0.7421582624208989 -5.153242370961729
O 1.6047444531554431 -6.726602937242471 -1.2551917442070675
H 1.3817666020191073 -6.820549474295881 -0.31688354165403854
H 1.4235768705109098 -7.602617447495875 -1.6276683597471888
O -3.4094727905810194 -0.9463040337679955 7.0052586520846285
H -3.877889828206152 -0.9842561923835066 7.852673821537547
H -3.212690175004167 -1.873707732894207 6.804856742528477
O -8.238879667472453 -6.701577393541564 -2.876100440977817
H -8.572282776492589 -6.942822752328789 -3.753374856801812
H -8.341512533969233 -7.512434929077994 -2.3555829138200446
O -2.4592077203922567 6.865344062785521 2.0872820694665335
H -2.2738679364026106 6.125166998048157 2.684571307781987
H -3.015588864860074 6.4750684175398785 1.3965673040902762
O -4.350829603941817 4.6275563103709 -10.402887539931132
H -4.359940612945101 5.592558282546981 -10.490383483329776
H -3.4090150856959003 4.400101194373331 -10.417431532771563
O 6.403016622843865 -4.358496037085934 -3.117685344226138
H 6.544500396739793 -3.946257237671107 -3.983138330171181
H 7.1229354589462215 -4.008864647869849 -2.571391736905077
O -4.2887234427302925 3.9573612188595417 -6.999281027259391
H -4.160971204380353 4.070898758814838 -6.04546975163015
H -4.435383317276715 4.858239245950969 -7.324660199613557
O -8.05237574991922 -2.7241632846199955 -3.1680189389405045
H -8.057691750079151 -2.5690307603492255 -2.2115290033135375
H -7.232484502845492 -3.2175937660998626 -3.3205530243720265
O 5.823617355831892 3.257546985740759 4.1882422739365595
H 6.36321142775456 3.0055314856011734 3.4238511553753144
H 6.256596999815384 4.05524723908613 4.527601785382251
O 3.0609797933646847 8.55216601564462 -1.0310531648646535
H 2.994491889057239 8.596161123086686 -1.996771108159675
H 3.3801916366080222 9.431421669562589 -0.778119896023881
O 0.25096758046316137 -5.955455033019176 7.712391032610281
H 1.1961765570907206 -6.142519766595273 7.815124341983566
H -0.1376615617540295 -6.246091107780618 8.551116259467559
O 4.106759394784281 5.109331336200308 -9.82928780330754
H 4.860394899235561 5.687716434954222 -10.020263091944294
H 3.7813346823337692 4.852077534760845 -10.705005327667678
O -9.532915790564882 -3.094551446413071 0.7370025048437387
H -9.880853041621053 -3.5811807751734612 1.4993009520530247
H -9.178886561243152 -2.2787573487150707 1.1218469399691111
O -5.905361331288058 -2.2078356130192986 6.854321819318757
H -6.101964121159652 -2.110896659420348 7.798206102051471
H -5.91545544325208 -1.298913025844623 6.518584148320475
O 6.311859284922965 0.4206928508991404 -2.1817610721261884
H 5.720654006393841 0.702394330174433 -1.4675566531301885
H 5.895679200471832 0.7729948811487113 -2.9827850175162594
O -0.31747855943157754 -8.455341693163298 2.225027872364772
H -1.0051935750499 -8.180083630454355 1.6003292145250017
H 0.09481381846624781 -7.622974954724493 2.50096727181346
O -10.037543452643048 -0.27480551679669096 1.7676636692402523
H -10.132923021646658 0.5392172552281895 2.28461339730055
H -10.027140911877316 0.03155923741551092 0.8484279166598192
O 6.876195781095679 -5.557675833147862 -0.8939588340618929
H 6.161332476954229 -6.022591219456752 -0.43375073236742434
H 7.550936992781917 -6.2400965611345764 -1.0280788980578155
O -0.027454022945018364 -3.247258189573136 -5.731303401221411
H -0.05966813311234595 -3.2313596807464355 -6.6996405560508725
H -0.773383691494283 -2.6899182709298035 -5.463118597467307
O -2.5350471466271483 4.399671798678122 -2.990213288647663
H -1.7247301168568276 4.884731632187911 -3.207170948295029
H -2.6136749727211126 3.7456024678356954 -3.7008277549478326
C 15.01152402947369 15.523277758866614 -0.8258292399831166
O 16.11375631614884 15.22394737702917 -0.4676343684119022
O 13.90929174279854 15.822608140704059 -1.184024111554331
O 15.035423822046571 -5.134564211339397 -6.006420925507815
H 15.560768921381229 -5.407077721494737 -6.773699408386016
H 14.160865857067229 -4.94362955903211 -6.377438807475095
O 5.7681077110498915 7.697047831529556 -16.198367600765128
H 4.841808036991434 7.733238459749054 -15.916185905454682
H 6.2601128886737705 7.579196370360594 -15.371927111321613
O -10.272022211212214 -13.43932122135253 -3.7311405251358276
H -9.656022369111483 -13.282927456410189 -2.999667667321518
H -10.949283275394992 -12.755762151369833 -3.6170072999715406
O 13.363981368731922 3.0282215545921636 -9.955297133141427
H 13.423574806304199 3.261651459614982 -9.01672030701617
H 13.201434192891519 3.875109635201383 -10.397248418746912
O 7.197258603318758 5.842187212978441 0.3725792740385794
H 6.3794211941372385 5.435680122820556 0.6964022421780105
H 7.633223494878212 5.130648369461109 -0.11997430862382474
O -18.435395914512284 -3.051973819376917 4.705014144257809
H -18.490257084153114 -3.1052832325343918 5.670993292808359
H -18.41279276463294 -3.9779590122530397 4.420404825208516
O -2.4041981521432962 6.925397561804444 -1.4955794884129685
H -2.575100159916456 6.4280509385869165 -0.6816960833645385
H -2.772752324875225 6.364404952686475 -2.1944479013326648
O 6.048865757653568 -7.720221924975484 7.725845884108209
H 5.217809187479456 -7.400994000891173 8.10847607966949
H 6.411749545221006 -8.304312159707187 8.408572695293893
O 2.0767374166589336 -19.153990535446702 2.9055314637620784
H 2.6012210429526705 -18.466056661894875 2.4689180555051253
H 1.6792652827602375 -18.699588857777858 3.66348724242318
O -5.313285852428982 3.4362463803819256 -13.673073870945574
H -5.5033981517194075 3.040478300283974 -12.809249642682618
H -4.412896988949964 3.1394206614198747 -13.873464318286814
O 9.974091593709431 -0.8465529650439172 -11.751889909328682
H 10.15965121122129 -1.1520249927232715 -12.652568445519215
H 10.420883145916315 0.011673491574243577 -11.699101630921477
O -8.276929233802946 -6.336272947702656 1.8090289496874992
H -8.280636517553749 -6.501469037797495 0.854218044447844
H -7.9222644925781065 -5.4381353174891895 1.8897981444739873
O 15.977977849644697 7.678124699930876 -0.2601725297168318
H 15.091973123046202 7.751049277565806 0.12537252254281683
H 15.986231897337625 8.351573538726665 -0.9568507025637243
O -13.410939517424659 7.87233473890117 -6.983899949310456
H -14.322880053551193 7.566288908424139 -6.866990731894212
H -13.47479187793708 8.83560843310141 -6.90030204013317
O -20.450047833050768 -3.557915227343498 -4.616164462438909
H -20.217056934223926 -3.3550479828722066 -3.6977269419267698
H -19.6487588255102 -3.9670765958515464 -4.976004489694463
O -8.966155935260149 -14.331617431054694 -6.527545815322396
H -9.261874304060816 -13.416973245972692 -6.405300087587005
H -8.667290147110318 -14.600785183158573 -5.645962066492527
O -9.080937689413606 5.208630540697619 5.678309905961802
H -9.266481273808326 6.043991434864103 5.22365276955313
H -8.208155620238406 5.3473107513822375 6.075778399292692
O -7.031996759873155 3.768857953263609 15.788164853688123
H -6.84401179402322 3.854703754810597 16.734874686673475
H -6.48860022228281 3.0167336192470087 15.508895926997535
O 6.996824357328633 -10.95206247277848 7.09259200304758
H 7.0274196070294 -10.428898126339412 7.907656634969939
H 6.08729492826353 -10.841159931746127 6.777284552521792
O -8.83683626306766 2.2460381483897724 2.473078172174917
H -8.464646946258027 3.0559804576949405 2.8531254389065586
H -8.23994186439168 1.5474085871576309 2.7806424049813776