194

C -5.0710522388059704 1.0783507462686561 0.47044029850746183
C -3.8153522388059704 0.1782507462686569 0.19534029850746193
C -4.11845223880597 -1.3219492537313435 0.5608402985074619
C -2.96945223880597 -2.3874492537313436 0.7034402985074619
C -2.52015223880597 0.7359507462686565 0.7384402985074618
C -2.20305223880597 0.7852507462686571 2.097440298507462
C -1.5755522388059702 1.205650746268656 -0.18965970149253808
C -0.9533522388059701 1.2695507462686564 2.508640298507462
H -2.91125223880597 0.4298507462686567 2.840840298507462
C -0.32655223880597006 1.6562507462686575 0.21554029850746192
H -1.7850522388059702 1.178550746268657 -1.2573597014925382
C 0.004447761194029898 1.6956507462686563 1.569740298507462
H -0.7158522388059702 1.2676507462686573 3.5705402985074617
H 0.3943477611940298 1.9193507462686572 -0.5551597014925382
C -1.76045223880597 -2.1592492537313435 -0.1734597014925381
C -0.5287522388059701 -1.936549253731343 0.464840298507462
C -1.8068522388059702 -2.121249253731343 -1.5681597014925381
C 0.6114477611940299 -1.614449253731343 -0.2582597014925381
H -0.4544522388059702 -1.954049253731343 1.5506402985074619
C -0.6479522388059701 -1.8270492537313432 -2.2998597014925384
H -2.74345223880597 -2.290549253731343 -2.092259701492538
C 0.5698477611940298 -1.5506492537313434 -1.6506597014925382
H 1.5072477611940298 -1.351949253731343 0.2991402985074618
H -0.7173522388059701 -1.7640492537313435 -3.3840597014925375
C 1.7791477611940298 -1.082849253731343 -2.4255597014925376
H 1.4739477611940297 -0.9102492537313429 -3.464259701492538
H 2.1252477611940295 -0.1337492537313434 -2.0010597014925384
C 1.3965477611940298 2.0964507462686566 1.997440298507462
H 1.51704776119403 1.8448507462686567 3.057640298507462
H 2.1256477611940294 1.5207507462686571 1.4165402985074618
C 3.94864776119403 -1.4275492537313434 -3.522959701492538
H 4.81734776119403 -2.087049253731343 -3.615159701492538
H 3.4305477611940303 -1.3641492537313429 -4.484459701492538
H 4.26984776119403 -0.441449253731343 -3.176459701492538
C 2.60904776119403 -3.4296492537313434 -2.8992597014925376
H 1.9825477611940296 -3.869549253731343 -2.119359701492538
H 2.06294776119403 -3.373349253731343 -3.845759701492538
H 3.5215477611940305 -4.019849253731343 -3.0234597014925377
C 3.7281477611940304 -2.060049253731343 -1.156659701492538
H 3.9048477611940298 -1.032549253731343 -0.8295597014925382
H 3.12924776119403 -2.623249253731343 -0.4404597014925382
H 4.68244776119403 -2.5769492537313434 -1.3005597014925383
C 3.1110477611940297 3.755250746268656 2.588740298507462
H 3.40124776119403 4.809350746268656 2.534540298507462
H 2.9823477611940303 3.461750746268656 3.634840298507462
H 3.86514776119403 3.1392507462686563 2.091540298507462
C 1.99744776119403 3.9574507462686572 0.40494029850746194
H 2.67914776119403 3.230350746268657 -0.04295970149253803
H 1.03214776119403 3.981150746268657 -0.10175970149253821
H 2.4399477611940297 4.958250746268657 0.368240298507462
C 0.7418477611940297 4.4992507462686575 2.475440298507462
H -0.18475223880597014 4.424250746268656 1.901240298507462
H 0.57844776119403 4.189650746268656 3.511940298507462
H 1.1210477611940297 5.524350746268658 2.4432402985074617
N 3.00114776119403 -2.025349253731343 -2.490159701492538
N 1.7831477611940298 3.586450746268657 1.862540298507462
C -3.55075223880597 -3.8435492537313434 0.6444402985074619
H -2.62515223880597 -2.2736492537313433 1.7424402985074618
H -4.67195223880597 -1.3478492537313436 1.5102402985074619
H -4.83415223880597 -1.6757492537313432 -0.1945597014925382
H -3.7169522388059697 0.17335074626865676 -0.900559701492538
H -3.9132522388059705 -4.043149253731343 -0.34225970149253815
H -4.35435223880597 -3.9354492537313432 1.3449402985074619
H -2.78115223880597 -4.545049253731343 0.8904402985074619
H -5.24235223880597 1.138950746268657 1.5249402985074618
H -5.92805223880597 0.6501507462686567 -0.006059701492538094
H -4.89895223880597 2.059650746268657 0.08004029850746197
C 1.1888536564105738 -4.468517403700886 2.340539761282161
O 2.017452243201432 -4.342189163065182 1.452147361390041
O 1.411099597309816 -4.944625764296852 3.4597176000658068
O -0.00016157193486998622 -4.139795646964412 2.257876723528162
O -6.54418890492142 -5.540955508263302 -6.41038026293769
H -6.651292387229565 -5.535956384899061 -7.373433329877959
H -6.588724637719228 -6.479826609841124 -6.174796801238427
O -3.926745953632112 0.29448215459361204 6.943727478300411
H -3.7482002673666788 0.4939785210512895 6.012443421427219
H -3.8567191564056813 -0.6706795704929704 6.993937401603471
O 5.009591303573072 1.3446724231600686 2.1748170487504597
H 5.907509607241383 1.3271223524774338 1.810946093800138
H 4.942199975769573 0.5155665067698114 2.671811749570852
O -9.341886003018468 -5.570305524678343 5.471726152229297
H -8.446300040944553 -5.345624046187221 5.765684269414699
H -9.236519319647803 -6.429191881626364 5.0356366749611325
O 1.585234329972863 8.965907679416631 8.032862695612595
H 1.4587112970929779 8.962146141134765 7.072162362584325
H 0.6920883667364057 9.09435634273756 8.386066848398894
O 6.500675949727956 -0.006628902454846042 6.079172619492878
H 6.653508924659356 -0.7267616273409438 5.4490787398037135
H 7.386096235376235 0.34963081501868376 6.246719257084328
O -5.026909683541828 5.178579111276093 3.9922402530925862
H -5.688779437690476 5.509503023069203 4.617848077569515
H -5.546459835859183 4.922911432599853 3.2152823252693885
O 6.6721551108077595 -5.4742433209663695 3.996282154305604
H 6.688301204077607 -5.556649226474122 4.961640081351097
H 5.78068182281319 -5.764591703941514 3.7514656156570303
O 5.212190512625807 -0.7631246891251711 -7.704680109231374
H 5.445572999602922 0.11827700695925913 -8.032751780992085
H 5.867955989679158 -1.3467753857168485 -8.11490620271281
O 8.475253889376917 -2.4858077924241715 0.18427139324692
H 9.20304096959189 -3.105765541786092 0.026329277969630915
H 8.853855991680938 -1.6204343447151974 -0.03194883807119053
O -6.514076918324765 -0.2643869699752761 9.685285725379174
H -5.870868307612782 -0.840187187344366 9.245167389378876
H -6.228004112254027 0.6304832048353433 9.447942800139717
O 2.4097397800718183 1.4801632651309404 6.295764903293387
H 1.9173281349470521 1.9328102631813586 6.996913121433792
H 3.3385240670276737 1.6329521762519483 6.525932757787361
O -1.9813811833889066 11.050419125200229 -1.2369386592844804
H -1.6399213071001908 11.209078305917583 -2.129799104235982
H -1.6818404762283503 10.1529117112213 -1.0278507569404927
O -7.056485030803047 3.4266048677213554 1.9329415167576296
H -7.1325786950797685 3.2740162769861794 0.9790579635214943
H -7.675359379863604 4.152346298100811 2.1039849633016403
O -3.950705384754686 -1.0246124810116162 -5.543305966954195
H -3.244098270996773 -1.2502956368479572 -6.166796830446566
H -4.496898375606485 -1.8242778987774164 -5.509095140103419
O 11.563926621649996 -0.13215977451040306 1.9931732738877237
H 12.251218584290397 -0.582199968475372 1.479304673167772
H 12.056272581583054 0.49519443709077393 2.5436131827096227
O 1.3081426909218132 0.9673705002653927 11.139799003215838
H 1.7732719992143315 1.6058382341220765 10.578567289668541
H 1.9719134500361042 0.28388308238578475 11.316477449114322
O 10.260295091947235 3.5713375134661636 3.5578333024071322
H 10.07291294356154 2.6242350179978047 3.4750555853332097
H 11.225077101154474 3.612920242642425 3.638011202381485
O -4.514718647430088 -8.585434964992466 3.0974430551251393
H -4.300719940217214 -8.167765175069706 2.2496672257945924
H -5.087490995988241 -7.940064381412625 3.53834053853482
O -6.390716055511935 0.8711791362238115 -5.420887383729232
H -6.469308718193687 1.51911722627111 -4.704670390256965
H -6.79557458859888 1.313458422429854 -6.182097305813644
C -2.1966779486527086 5.3241471006934065 -10.76234470922024
O -1.6687894095738551 4.250392458404512 -10.727661633055556
O -2.724566487731563 6.397901742982299 -10.797027785384927
O -13.112063130047606 -4.488159616676344 -4.601331171033688
H -13.546735440320933 -5.305465225724459 -4.8877554734246305
H -13.64667415272773 -4.18951216554355 -3.8503566716924658
O 9.756046531148764 5.534634313132632 -10.368098053738343
H 10.131716604893303 4.669198270553342 -10.147055503994025
H 10.308675764605866 5.849917744597848 -11.098960032823406
O -15.877256492888804 -4.934404616059907 -7.262753988261255
H -15.979095758042703 -4.876873789260835 -8.224672033076265
H -15.931855149907252 -4.013542537921022 -6.9661162226319995
O -15.927181818643009 -12.226043257091291 -6.980492609761239
H -15.571011558624472 -12.410192547281424 -7.86264857199286
H -15.449967804855259 -11.431961423578324 -6.6964806891852335
O -1.2749292522758335 -5.11735829611277 -3.3067876084716477
H -1.1695491105502815 -5.121358423621083 -2.3435397786740295
H -0.5180461373550366 -4.601451846749735 -3.6229053557643587
O -2.6467591448971715 -3.8338710220625085 10.785911358422014
H -2.846852813115593 -3.5694025007138164 11.696398196357926
H -3.3716847837916837 -3.453966415004609 10.267146236319954
O 10.426762527133782 12.462062315724545 2.207962301550484
H 10.31573951410318 12.447970583415003 1.245443381965979
H 10.601726151584705 13.393523437991128 2.4097786837519175
O -1.304179728374549 -0.7903670703411461 -12.114394741251486
H -1.2569506985195862 -0.3166756803245123 -11.270384526465511
H -1.7399835265157404 -0.16315037338875005 -12.710747161293392
O 12.858083516333293 7.34161053341718 -1.8984558319663618
H 13.14445864235146 7.9823106145284095 -1.230279171073343
H 13.682255873283253 7.066811829906657 -2.327626593888099
O 1.7861619982971728 -12.412493417877553 -7.217195481415429
H 1.1611516867159306 -12.780275885885086 -7.859897219038261
H 2.491288441122495 -13.075508467402706 -7.170615571243102
O -5.166050209658234 5.390833435648965 18.57360344459372
H -5.86878854437902 6.043086951478242 18.433276893641292
H -5.626773639737463 4.53910539397072 18.538174525685978
O -2.2224832487146133 -5.950943919232264 13.769627669717382
H -1.5650856700603686 -5.412762610270696 13.303626962460465
H -2.1778181023540317 -6.81119050055493 13.325845303772931
O 13.828949053740075 -16.613039011566084 -3.2599152881462192
H 13.845025367233697 -16.659332155863304 -2.292151962825647
H 14.195464395571047 -17.4648367249392 -3.541107578216293
O -1.0890106236432393 13.325970069645203 7.256480486284213
H -0.3811653355216924 13.247285694400357 6.599417951911376
H -0.6482586884976653 13.70678335004002 8.030871163810984
O -5.651469208889453 -10.39401468050605 -0.2256089959279124
H -5.8436875320369115 -10.516637558604778 0.7161888076972422
H -5.239437329986498 -9.518017518225328 -0.26827803322457244
O 2.5200989981696464 8.692933023596115 5.069981062095554
H 3.4661263516274015 8.495783810740454 4.99834454012449
H 2.122880862923561 8.205081354505403 4.3329732966703665
O -10.697292706507127 -2.7836668972808605 11.371211552553959
H -10.649060798731378 -2.7091324029978407 10.4062837577764
H -10.871576524228933 -3.7243967929839865 11.524881193377052
O 0.6926831890595109 -13.430616339015682 -1.4703535528585512
H 0.729940597747615 -13.937352480497845 -2.2954582282262406
H 0.3157177069658914 -12.578360730434756 -1.7359083442901477
O 0.558718564074814 6.643312081042812 -6.745331939695276
H 0.23476477068470425 6.4374593811454615 -7.635076825936904
H 1.2906598223003996 6.022207439238319 -6.613222277913638
O -2.7419707485161053 -3.6377052505880676 -9.79067456345257
H -3.2374219354398 -3.946827568333262 -9.017409491858267
H -3.204721306761668 -2.8291488310368473 -10.057246095214554