194

C -5.0710522388059704 1.0783507462686561 0.47044029850746183
C -3.8153522388059704 0.1782507462686569 0.19534029850746193
C -4.11845223880597 -1.3219492537313435 0.5608402985074619
C -2.96945223880597 -2.3874492537313436 0.7034402985074619
C -2.52015223880597 0.7359507462686565 0.7384402985074618
C -2.20305223880597 0.7852507462686571 2.097440298507462
C -1.5755522388059702 1.205650746268656 -0.18965970149253808
C -0.9533522388059701 1.2695507462686564 2.508640298507462
H -2.91125223880597 0.4298507462686567 2.840840298507462
C -0.32655223880597006 1.6562507462686575 0.21554029850746192
H -1.7850522388059702 1.178550746268657 -1.2573597014925382
C 0.004447761194029898 1.6956507462686563 1.569740298507462
H -0.7158522388059702 1.2676507462686573 3.5705402985074617
H 0.3943477611940298 1.9193507462686572 -0.5551597014925382
C -1.76045223880597 -2.1592492537313435 -0.1734597014925381
C -0.5287522388059701 -1.936549253731343 0.464840298507462
C -1.8068522388059702 -2.121249253731343 -1.5681597014925381
C 0.6114477611940299 -1.614449253731343 -0.2582597014925381
H -0.4544522388059702 -1.954049253731343 1.5506402985074619
C -0.6479522388059701 -1.8270492537313432 -2.2998597014925384
H -2.74345223880597 -2.290549253731343 -2.092259701492538
C 0.5698477611940298 -1.5506492537313434 -1.6506597014925382
H 1.5072477611940298 -1.351949253731343 0.2991402985074618
H -0.7173522388059701 -1.7640492537313435 -3.3840597014925375
C 1.7791477611940298 -1.082849253731343 -2.4255597014925376
H 1.4739477611940297 -0.9102492537313429 -3.464259701492538
H 2.1252477611940295 -0.1337492537313434 -2.0010597014925384
C 1.3965477611940298 2.0964507462686566 1.997440298507462
H 1.51704776119403 1.8448507462686567 3.057640298507462
H 2.1256477611940294 1.5207507462686571 1.4165402985074618
C 3.94864776119403 -1.4275492537313434 -3.522959701492538
H 4.81734776119403 -2.087049253731343 -3.615159701492538
H 3.4305477611940303 -1.3641492537313429 -4.484459701492538
H 4.26984776119403 -0.441449253731343 -3.176459701492538
C 2.60904776119403 -3.4296492537313434 -2.8992597014925376
H 1.9825477611940296 -3.869549253731343 -2.119359701492538
H 2.06294776119403 -3.373349253731343 -3.845759701492538
H 3.5215477611940305 -4.019849253731343 -3.0234597014925377
C 3.7281477611940304 -2.060049253731343 -1.156659701492538
H 3.9048477611940298 -1.032549253731343 -0.8295597014925382
H 3.12924776119403 -2.623249253731343 -0.4404597014925382
H 4.68244776119403 -2.5769492537313434 -1.3005597014925383
C 3.1110477611940297 3.755250746268656 2.588740298507462
H 3.40124776119403 4.809350746268656 2.534540298507462
H 2.9823477611940303 3.461750746268656 3.634840298507462
H 3.86514776119403 3.1392507462686563 2.091540298507462
C 1.99744776119403 3.9574507462686572 0.40494029850746194
H 2.67914776119403 3.230350746268657 -0.04295970149253803
H 1.03214776119403 3.981150746268657 -0.10175970149253821
H 2.4399477611940297 4.958250746268657 0.368240298507462
C 0.7418477611940297 4.4992507462686575 2.475440298507462
H -0.18475223880597014 4.424250746268656 1.901240298507462
H 0.57844776119403 4.189650746268656 3.511940298507462
H 1.1210477611940297 5.524350746268658 2.4432402985074617
N 3.00114776119403 -2.025349253731343 -2.490159701492538
N 1.7831477611940298 3.586450746268657 1.862540298507462
C -3.55075223880597 -3.8435492537313434 0.6444402985074619
H -2.62515223880597 -2.2736492537313433 1.7424402985074618
H -4.67195223880597 -1.3478492537313436 1.5102402985074619
H -4.83415223880597 -1.6757492537313432 -0.1945597014925382
H -3.7169522388059697 0.17335074626865676 -0.900559701492538
H -3.9132522388059705 -4.043149253731343 -0.34225970149253815
H -4.35435223880597 -3.9354492537313432 1.3449402985074619
H -2.78115223880597 -4.545049253731343 0.8904402985074619
H -5.24235223880597 1.138950746268657 1.5249402985074618
H -5.92805223880597 0.6501507462686567 -0.006059701492538094
H -4.89895223880597 2.059650746268657 0.08004029850746197
C 4.504872102913852 1.0141707940852203 -0.7928159398588855
O 4.611804177058683 0.9390062563515253 0.42155275307846285
O 5.330202436415688 0.5874883549043566 -1.6085385647727817
O 3.554767346328539 1.5285573349125656 -1.393944730160632
O 3.8787488754812705 5.383047409970198 -4.762878600133576
H 3.3079066139389566 5.1917594926340325 -5.522164713544358
H 3.6404481529702624 4.7040294251301225 -4.1139492617503794
O -4.51120762101174 -5.632398147223754 -1.8521649659935233
H -5.476726763701926 -5.711456078632469 -1.8743005816431106
H -4.209539276870504 -6.518223653429188 -1.6006270424134592
O -0.46669724318781913 -4.629614528943588 -7.626582970979847
H -0.4503087151313472 -4.506237393013107 -6.6656059393200175
H 0.32756333854961794 -5.153922914717043 -7.80882673412619
O -4.119404642882108 -8.451186950113563 -4.455972322521319
H -4.359561040692262 -7.66638905565938 -3.9408174658508868
H -4.069657779414031 -9.158494511723093 -3.795515505488542
O -3.374841917407548 3.3447816305622733 -7.238715541655616
H -4.1806129694874095 2.820876602863973 -7.362100672374657
H -2.8020639052446286 3.0689846465564297 -7.97003169537846
O -0.8372430748483412 3.4028307936962983 -2.953225034839341
H -0.9371040051125445 3.074798007977681 -3.8595305258303494
H 0.0989217077773612 3.253957468801822 -2.752242007679744
O -5.915025135609429 -5.708758649856567 3.3230273054511974
H -4.98502864567289 -5.5616491517162805 3.094045469571954
H -6.072447693179562 -5.103367945541843 4.063082828906973
O 7.50991852533539 4.261633883121868 3.3309806172301673
H 7.537312782257123 4.314146437555442 2.3637891453826496
H 7.9185023969228405 5.090665496744005 3.6220609288173375
O -7.6065212586235695 -3.261435579200742 -0.13698097730107506
H -7.805564756459325 -3.8542314975753222 -0.8772120507016359
H -7.574037982731243 -2.382346630781206 -0.5433175395914212
O 0.02705782738087681 7.25928000501467 -9.557491991421326
H 0.6734323657379728 7.4168260459023525 -10.262010662617675
H -0.8269315165490609 7.437774873501475 -9.979159783264612
O -3.0267932764948533 4.820644566956612 -4.307070145363515
H -2.508276694507444 5.166294238036025 -3.5650228315170267
H -3.9395120692001053 4.835780822025745 -3.981989780645577
O -2.1544621324356372 0.9629501870225917 6.49640295398347
H -1.4061571353561708 1.5444339428423874 6.294205946182649
H -2.7488965288369327 1.0746305942184047 5.739344713605886
O -7.095048737688975 -7.301903243001573 0.17036408944461306
H -6.144532563182266 -7.24666871089014 -0.009734509560379245
H -7.4927286894731315 -6.7132187326193336 -0.4886223652606201
O -8.031137183760286 0.488867138999436 -2.1364524971723218
H -7.722295186715731 0.4592137607943292 -3.0544419605772988
H -7.425514183858526 -0.10385339502409674 -1.6664896317916098
O 2.664958248764703 1.8798042648072242 -5.545991189588925
H 2.7027901377609327 2.0573529859003306 -6.4978381083280565
H 3.5932720338808775 1.8925390451940078 -5.2684424802930945
O 6.106996282506181 -0.6491864229691497 -5.388804277728593
H 5.299180557634826 -1.1380610980182926 -5.606525805479441
H 6.078353726705971 -0.5677600017965836 -4.423655954292108
O -4.291739230460323 -4.799933942047959 9.951424689276818
H -4.161464121813347 -5.759719574019206 9.923011776216503
H -5.228074982560018 -4.684178106535923 9.73043172516979
O 7.22323953983186 1.0639616162010257 -7.285974268833576
H 7.20183582877274 1.373529541102187 -8.203948635537401
H 8.09983231107399 1.3295916652287185 -6.969765896459308
O 7.218667197088156 2.887285571401468 7.353557692947324
H 7.145456603793494 2.818138431990357 6.389801375696585
H 7.422989140846114 3.8221036727080353 7.506298012013877
O -2.2063278111865294 -1.5622576715474847 4.525814111728446
H -1.9791632553985339 -0.7800516860450493 5.05071164243116
H -1.3502175015710498 -1.9768896625995156 4.3411051675315955
C -9.812306448261346 12.335963518308235 -1.5945677283756527
O -9.997986867535023 12.911613890795849 -2.6275090083394383
O -9.626626028987669 11.760313145820621 -0.5616264484118672
O 3.312655830473128 -22.513805442342186 6.092353185470034
H 2.650503288366349 -23.102073255390565 6.485370167307723
H 2.8553557015001276 -21.662672626657585 6.018790515547842
O -4.997030028254541 -14.459689428440733 12.812721699405094
H -5.104341854322509 -14.448041461791355 13.775694104907398
H -5.090071996536276 -13.53007347683035 12.555584928503341
O -6.679883778801989 6.395543407991477 -8.974798532641605
H -6.754878875840983 6.666076961941452 -9.902243780894736
H -6.460858397728641 7.21627982494688 -8.508556577613017
O -1.262997775049986 13.668723422141703 -1.4222170881613154
H -1.720895592146204 14.489543092226858 -1.186522338114113
H -0.48221494568302026 13.66319379204312 -0.8483621057339725
O -2.8079373382192143 4.137021712134244 -0.6658659083794733
H -3.094836282973657 4.535598771313713 0.16947395077644734
H -3.5409299036894932 4.3151349220863064 -1.2741088924786488
O -5.786471352038214 7.545535577475036 -14.097492458746363
H -6.22100447855671 7.052181762386348 -14.80935644294243
H -5.756604932583244 6.9164069724175015 -13.361104558528481
O -5.845531491587828 14.99424129614653 -4.484050365882036
H -6.778622048907128 14.945635452827021 -4.7408515355381695
H -5.386295387510481 15.208319437053728 -5.310025362233365
O -1.5130518343355308 11.597618307864442 16.078789399340547
H -1.5236112621585503 11.539390212717443 15.111594825162419
H -1.706726651241165 10.693870445811744 16.36980797509086
O -17.0296306831603 -2.4328611157340188 3.023415905344898
H -17.13629410839309 -2.018724863496897 3.892945338544603
H -16.934498919686757 -1.6829933982355447 2.417107157154638
O 7.375423804024512 -9.262895043804201 -13.060922017037718
H 7.484878613131061 -9.28622594831573 -14.023440936622222
H 6.9029120580464305 -10.084457422499737 -12.859105634836284
O 12.630614888326216 5.0358448097034785 13.466177857086462
H 13.208134197503448 4.4242517444524045 13.947210836168198
H 12.152002148269961 4.466350912102199 12.84523624151319
O -13.61961443754302 6.18968782113074 -7.282520081189382
H -14.31045284299107 5.883893284138258 -7.8893144084564995
H -13.796921990573606 7.137263195343228 -7.18441357720331
O 1.9471029337566097 5.092197721625588 7.6098771789829405
H 1.0555895931776607 4.9992480915434605 7.978023463409878
H 2.322859087797058 4.201690610746206 7.678915881708187
O -13.336783515762386 -3.569035923034539 -2.91442610424227
H -13.622152489075424 -4.400372681156438 -3.3223612713529738
H -13.929298295759313 -2.9048530841406652 -3.2975048641651723
O -5.942352481688225 13.53780217090902 9.451815214445105
H -5.460194860815865 14.127684868756322 10.050588784599213
H -6.322805499566546 14.135391629882191 8.790676587520746
O 8.816205500368799 5.313592311211443 -13.505201052760352
H 9.156836734788603 5.279932708778031 -14.411735525464875
H 8.908081350013312 4.4030608616802045 -13.186683781695438
O 8.977290622034651 4.552857482847568 -9.61379529521954
H 8.033195610603853 4.374065916028443 -9.488553361643579
H 9.060253934153366 4.716853329066374 -10.565207085962786
O 10.078792582413982 0.8892706858524555 -8.9789889489076
H 10.13482888583014 0.8724061576412385 -8.01175429418949
H 9.839654807036723 -0.019494318377846653 -9.215465661870873
O -5.866160603740477 -1.025141223452922 -5.975364150109325
H -6.017542218412973 -1.8151626628840563 -5.435070629068855
H -4.924199873023069 -0.834199422512895 -5.8520225320718415
O 16.723904191293762 8.871531252370598 8.187161493579438
H 16.63739431818582 9.501734062575803 7.456184191083452
H 17.51868925996391 8.363502645177118 7.965383286372248