194

C -5.0710522388059704 1.0783507462686561 0.47044029850746183
C -3.8153522388059704 0.1782507462686569 0.19534029850746193
C -4.11845223880597 -1.3219492537313435 0.5608402985074619
C -2.96945223880597 -2.3874492537313436 0.7034402985074619
C -2.52015223880597 0.7359507462686565 0.7384402985074618
C -2.20305223880597 0.7852507462686571 2.097440298507462
C -1.5755522388059702 1.205650746268656 -0.18965970149253808
C -0.9533522388059701 1.2695507462686564 2.508640298507462
H -2.91125223880597 0.4298507462686567 2.840840298507462
C -0.32655223880597006 1.6562507462686575 0.21554029850746192
H -1.7850522388059702 1.178550746268657 -1.2573597014925382
C 0.004447761194029898 1.6956507462686563 1.569740298507462
H -0.7158522388059702 1.2676507462686573 3.5705402985074617
H 0.3943477611940298 1.9193507462686572 -0.5551597014925382
C -1.76045223880597 -2.1592492537313435 -0.1734597014925381
C -0.5287522388059701 -1.936549253731343 0.464840298507462
C -1.8068522388059702 -2.121249253731343 -1.5681597014925381
C 0.6114477611940299 -1.614449253731343 -0.2582597014925381
H -0.4544522388059702 -1.954049253731343 1.5506402985074619
C -0.6479522388059701 -1.8270492537313432 -2.2998597014925384
H -2.74345223880597 -2.290549253731343 -2.092259701492538
C 0.5698477611940298 -1.5506492537313434 -1.6506597014925382
H 1.5072477611940298 -1.351949253731343 0.2991402985074618
H -0.7173522388059701 -1.7640492537313435 -3.3840597014925375
C 1.7791477611940298 -1.082849253731343 -2.4255597014925376
H 1.4739477611940297 -0.9102492537313429 -3.464259701492538
H 2.1252477611940295 -0.1337492537313434 -2.0010597014925384
C 1.3965477611940298 2.0964507462686566 1.997440298507462
H 1.51704776119403 1.8448507462686567 3.057640298507462
H 2.1256477611940294 1.5207507462686571 1.4165402985074618
C 3.94864776119403 -1.4275492537313434 -3.522959701492538
H 4.81734776119403 -2.087049253731343 -3.615159701492538
H 3.4305477611940303 -1.3641492537313429 -4.484459701492538
H 4.26984776119403 -0.441449253731343 -3.176459701492538
C 2.60904776119403 -3.4296492537313434 -2.8992597014925376
H 1.9825477611940296 -3.869549253731343 -2.119359701492538
H 2.06294776119403 -3.373349253731343 -3.845759701492538
H 3.5215477611940305 -4.019849253731343 -3.0234597014925377
C 3.7281477611940304 -2.060049253731343 -1.156659701492538
H 3.9048477611940298 -1.032549253731343 -0.8295597014925382
H 3.12924776119403 -2.623249253731343 -0.4404597014925382
H 4.68244776119403 -2.5769492537313434 -1.3005597014925383
C 3.1110477611940297 3.755250746268656 2.588740298507462
H 3.40124776119403 4.809350746268656 2.534540298507462
H 2.9823477611940303 3.461750746268656 3.634840298507462
H 3.86514776119403 3.1392507462686563 2.091540298507462
C 1.99744776119403 3.9574507462686572 0.40494029850746194
H 2.67914776119403 3.230350746268657 -0.04295970149253803
H 1.03214776119403 3.981150746268657 -0.10175970149253821
H 2.4399477611940297 4.958250746268657 0.368240298507462
C 0.7418477611940297 4.4992507462686575 2.475440298507462
H -0.18475223880597014 4.424250746268656 1.901240298507462
H 0.57844776119403 4.189650746268656 3.511940298507462
H 1.1210477611940297 5.524350746268658 2.4432402985074617
N 3.00114776119403 -2.025349253731343 -2.490159701492538
N 1.7831477611940298 3.586450746268657 1.862540298507462
C -3.55075223880597 -3.8435492537313434 0.6444402985074619
H -2.62515223880597 -2.2736492537313433 1.7424402985074618
H -4.67195223880597 -1.3478492537313436 1.5102402985074619
H -4.83415223880597 -1.6757492537313432 -0.1945597014925382
H -3.7169522388059697 0.17335074626865676 -0.900559701492538
H -3.9132522388059705 -4.043149253731343 -0.34225970149253815
H -4.35435223880597 -3.9354492537313432 1.3449402985074619
H -2.78115223880597 -4.545049253731343 0.8904402985074619
H -5.24235223880597 1.138950746268657 1.5249402985074618
H -5.92805223880597 0.6501507462686567 -0.006059701492538094
H -4.89895223880597 2.059650746268657 0.08004029850746197
C 0.8710937865889505 2.1112476877338353 -4.052520943028661
O 0.5691221611048969 1.004436158932459 -3.6335258646388566
O 0.08184379212394854 3.04680905455596 -4.226993976036379
O 2.012679803935483 2.467043892840696 -4.366907345136704
O -10.86458099239957 -1.3816144725175947 -2.064036367306622
H -10.750627330270046 -0.8956528777899324 -1.2334803798879426
H -11.81189567829879 -1.3040115750333126 -2.252542654951654
O -4.8736301042119585 -10.129631717923989 6.767535914190507
H -5.205111978122843 -9.795976041373864 5.920328139394731
H -4.244739597606274 -9.451347833808022 7.056308571396485
O -3.0205320817412034 5.1535139209837615 -0.5560261019441168
H -3.592550941263494 5.385534633292471 0.19091979322539138
H -3.197927140543243 4.212320530936947 -0.7031584911206846
O -0.14306766719330222 -6.4762302812183865 9.290909417483219
H -0.296612541051108 -6.64248797876535 8.348704712220941
H 0.203096982849865 -7.317874699558326 9.623725661734781
O -1.9106691387217887 -11.41385754513907 -4.769987861436601
H -1.730217912300334 -11.124939957446113 -3.8628322301887557
H -1.0328804551791828 -11.602293312578492 -5.134598520762486
O 1.7024635751329338 -6.63065032789832 -4.9556861772915575
H 1.333205716505069 -7.073809401307054 -4.17708099724388
H 1.3447935358189471 -5.731512299741269 -4.9048443283973775
O -1.0986167108863336 4.1853426564579905 9.114989467203948
H -1.1525657368186104 4.3435435004094956 8.160510890978168
H -0.18582192879713544 4.420210323205339 9.339944594301304
O 1.3968198984878866 0.9718210262278253 8.395068565184419
H 1.5811377236466577 0.27578730631459686 7.746584674118113
H 2.2461527977193176 1.1064842177055867 8.84167957651772
O -7.945645069360341 7.1331895469922255 -0.39449055976240677
H -7.283739997441959 6.882873434408771 -1.0564504350190795
H -8.789301782739459 7.049196425087442 -0.8636924882996132
O 5.907215208412262 -0.05048169773498545 4.45121536545632
H 5.746755178803856 0.9046146225584947 4.483010880233158
H 6.7518341489291736 -0.16142237890534972 4.913030214591282
O -1.4363897622219817 -8.93487090896869 -0.674638995582064
H -0.49609407287286467 -8.70847859448085 -0.6149909157109714
H -1.8548541886567893 -8.375587591815593 -0.0030352141284355483
O 2.2244271189711107 5.429402575976997 -8.43768509784159
H 2.545528662613032 4.783194181155837 -7.790942594186977
H 1.3245823635910372 5.63108768543103 -8.140087253192991
O -7.284986152728631 -4.09425872158767 6.853522239834042
H -6.498252693025391 -4.042543250502737 7.4168545843109355
H -7.31527967764603 -5.02290927899757 6.57847244639591
O 5.574049665341412 1.09556636896832 1.5832696578506908
H 4.911484068019707 0.9383569143844489 0.8938790765869369
H 6.389534904653113 0.725814249937697 1.2128251421170915
O 6.395540148486992 -0.2924423537062383 -3.9791358143229427
H 6.03309253995838 0.599882222682959 -4.0857000594698505
H 6.0182502825866475 -0.7884744517905404 -4.721137471368926
O 0.9747338423563243 4.297767113149147 -2.7879042178089075
H 1.4630994487171936 4.509461812802988 -3.5976274702614055
H 1.650461594911418 4.322370742375651 -2.0938230913145146
O -4.305059331574704 4.733509093419216 -3.2950509299225708
H -4.322275763986206 4.55729327627688 -4.247741297851143
H -3.8636286347065463 3.956131089435684 -2.921173512732028
O -3.2126669349189685 5.044134747658521 -8.117526755692689
H -3.2274615608922277 5.492555787853842 -7.258651301012293
H -3.6185150627920035 5.68328414807122 -8.722288928248183
O -3.646682298651979 0.8244100574076902 -5.817977405128677
H -2.9045883025981323 0.9748595320828833 -6.422649889611636
H -4.1395192365499485 0.09806387039170539 -6.228458724497405
O 5.605872155227692 5.767174018491522 0.21050582649964922
H 5.703498832395213 5.139539855461699 -0.5212808543049993
H 5.894365047283718 5.266484831165761 0.9883516552010814
C 5.648632874649295 4.148620598223102 -13.995781285066947
O 5.43366656301088 3.5329281285722876 -14.999539485519556
O 5.8635991862877095 4.764313067873917 -12.992023084614342
O 1.478369496813329 2.403634782563854 -15.579472657300874
H 1.0713899534317148 2.9941934661660707 -14.927878113592204
H 2.333279256754209 2.173907852163606 -15.18537015273296
O 2.751298621216165 13.511004078158694 17.45787547727914
H 2.6282787444976927 13.643144556174594 16.505839574121122
H 3.5385407749788373 12.9490532355592 17.516381768742757
O 11.06705743290663 -9.28493250881774 3.544180144982768
H 11.316369997516496 -8.350459463666963 3.603935729778555
H 10.17061239335412 -9.264981596596417 3.1768244638463035
O -4.277085738316868 -14.947362973460098 10.609705111046445
H -5.165058731170333 -14.560343897921653 10.583483821371294
H -4.390569258509788 -15.758701777605474 11.127211420024967
O -3.347273604913765 22.365300687436978 -0.4067874846770012
H -3.1336996339566294 22.46781778982767 -1.3463851430111515
H -2.5567732549520574 22.690340167032105 0.04974343181709617
O 3.6950254664051165 5.546324961682529 13.498564530053287
H 3.810761352733044 5.568699475027451 14.460371133622045
H 4.53836917170465 5.876074879927772 13.15360318374198
O -12.700330591665859 9.028795854133774 -9.643936943493783
H -12.557117837726553 9.066524874040828 -8.686318029172448
H -12.347506339694819 9.871571427077825 -9.96674698852011
O -7.13747885160858 5.317584546044319 7.654033907369064
H -7.112469254167588 5.310294404979587 8.622686957113448
H -6.859197523047526 4.42316397037148 7.4059748815559345
O 8.549009173297161 3.7510391133016467 -16.88503496814087
H 9.026959572927321 4.440855013080363 -17.369477737522196
H 8.730292554876943 2.9431349456472047 -17.38841269485271
O -15.55564242929868 -1.0722686852368144 -0.009658939259602928
H -15.386933329244872 -0.8813092338010315 -0.9445595138483565
H -14.719538891961035 -1.4454174324016797 0.3075993650300872
O 2.8709442446320144 -11.873974302356517 7.791930327450048
H 2.985575339668553 -12.403075947680103 6.988264652018652
H 3.48171523777398 -12.277421534438862 8.426872111522785
O 16.090051633923984 -7.842937325716267 15.443282595976514
H 16.134845454037936 -7.032513666514305 14.913967601681717
H 15.643857893597893 -7.566202918642674 16.257709485473317
O 10.513987280061272 5.17741796949411 0.0035768487585627895
H 9.635470401207082 5.4683380377639175 -0.2837225844921578
H 11.083701733814616 5.3671830985176 -0.7569338883722336
O 12.061513640588633 -2.695212697033966 -11.821646615381143
H 11.762802344687135 -3.0685698617271906 -10.978827924218514
H 11.999402612257887 -3.4373976207090085 -12.441538302314568
O -12.600772067682062 0.09946903270136698 5.666194551298794
H -12.659363343966639 -0.6639135366502433 6.260148650580447
H -11.65829541562502 0.1543206433880817 5.447811847239107
O 10.969532360751662 0.9711768014185376 -7.280163932915222
H 10.154341961213081 0.5148957154385663 -7.537534366293003
H 11.437365211103346 1.1050735964550924 -8.118117402214537
O 4.869429285694144 -20.000423167087064 -6.705851901067392
H 4.94245219054367 -20.080776488430548 -7.668752911564529
H 5.310647381573073 -20.795306549890917 -6.3705178230030395
O -0.14280091581956128 11.791021698629919 12.593121668230532
H -0.1610701549701056 10.823952111462782 12.534726416906064
H -0.9418443165371732 12.069165785272956 12.12075797875478
O -5.453933747346188 4.542334149861405 -14.698546366921425
H -5.548653035697642 3.892968272227604 -13.985581030962463
H -4.67198461322461 4.2424057843052205 -15.185948122643858
O -15.14496793275638 8.085999245429372 -11.86478265015171
H -14.931724976064396 7.842515073562289 -12.778133763563996
H -14.394433702260725 7.7505590738346255 -11.351810716772523