194

C -5.0710522388059704 1.0783507462686561 0.47044029850746183
C -3.8153522388059704 0.1782507462686569 0.19534029850746193
C -4.11845223880597 -1.3219492537313435 0.5608402985074619
C -2.96945223880597 -2.3874492537313436 0.7034402985074619
C -2.52015223880597 0.7359507462686565 0.7384402985074618
C -2.20305223880597 0.7852507462686571 2.097440298507462
C -1.5755522388059702 1.205650746268656 -0.18965970149253808
C -0.9533522388059701 1.2695507462686564 2.508640298507462
H -2.91125223880597 0.4298507462686567 2.840840298507462
C -0.32655223880597006 1.6562507462686575 0.21554029850746192
H -1.7850522388059702 1.178550746268657 -1.2573597014925382
C 0.004447761194029898 1.6956507462686563 1.569740298507462
H -0.7158522388059702 1.2676507462686573 3.5705402985074617
H 0.3943477611940298 1.9193507462686572 -0.5551597014925382
C -1.76045223880597 -2.1592492537313435 -0.1734597014925381
C -0.5287522388059701 -1.936549253731343 0.464840298507462
C -1.8068522388059702 -2.121249253731343 -1.5681597014925381
C 0.6114477611940299 -1.614449253731343 -0.2582597014925381
H -0.4544522388059702 -1.954049253731343 1.5506402985074619
C -0.6479522388059701 -1.8270492537313432 -2.2998597014925384
H -2.74345223880597 -2.290549253731343 -2.092259701492538
C 0.5698477611940298 -1.5506492537313434 -1.6506597014925382
H 1.5072477611940298 -1.351949253731343 0.2991402985074618
H -0.7173522388059701 -1.7640492537313435 -3.3840597014925375
C 1.7791477611940298 -1.082849253731343 -2.4255597014925376
H 1.4739477611940297 -0.9102492537313429 -3.464259701492538
H 2.1252477611940295 -0.1337492537313434 -2.0010597014925384
C 1.3965477611940298 2.0964507462686566 1.997440298507462
H 1.51704776119403 1.8448507462686567 3.057640298507462
H 2.1256477611940294 1.5207507462686571 1.4165402985074618
C 3.94864776119403 -1.4275492537313434 -3.522959701492538
H 4.81734776119403 -2.087049253731343 -3.615159701492538
H 3.4305477611940303 -1.3641492537313429 -4.484459701492538
H 4.26984776119403 -0.441449253731343 -3.176459701492538
C 2.60904776119403 -3.4296492537313434 -2.8992597014925376
H 1.9825477611940296 -3.869549253731343 -2.119359701492538
H 2.06294776119403 -3.373349253731343 -3.845759701492538
H 3.5215477611940305 -4.019849253731343 -3.0234597014925377
C 3.7281477611940304 -2.060049253731343 -1.156659701492538
H 3.9048477611940298 -1.032549253731343 -0.8295597014925382
H 3.12924776119403 -2.623249253731343 -0.4404597014925382
H 4.68244776119403 -2.5769492537313434 -1.3005597014925383
C 3.1110477611940297 3.755250746268656 2.588740298507462
H 3.40124776119403 4.809350746268656 2.534540298507462
H 2.9823477611940303 3.461750746268656 3.634840298507462
H 3.86514776119403 3.1392507462686563 2.091540298507462
C 1.99744776119403 3.9574507462686572 0.40494029850746194
H 2.67914776119403 3.230350746268657 -0.04295970149253803
H 1.03214776119403 3.981150746268657 -0.10175970149253821
H 2.4399477611940297 4.958250746268657 0.368240298507462
C 0.7418477611940297 4.4992507462686575 2.475440298507462
H -0.18475223880597014 4.424250746268656 1.901240298507462
H 0.57844776119403 4.189650746268656 3.511940298507462
H 1.1210477611940297 5.524350746268658 2.4432402985074617
N 3.00114776119403 -2.025349253731343 -2.490159701492538
N 1.7831477611940298 3.586450746268657 1.862540298507462
C -3.55075223880597 -3.8435492537313434 0.6444402985074619
H -2.62515223880597 -2.2736492537313433 1.7424402985074618
H -4.67195223880597 -1.3478492537313436 1.5102402985074619
H -4.83415223880597 -1.6757492537313432 -0.1945597014925382
H -3.7169522388059697 0.17335074626865676 -0.900559701492538
H -3.9132522388059705 -4.043149253731343 -0.34225970149253815
H -4.35435223880597 -3.9354492537313432 1.3449402985074619
H -2.78115223880597 -4.545049253731343 0.8904402985074619
H -5.24235223880597 1.138950746268657 1.5249402985074618
H -5.92805223880597 0.6501507462686567 -0.006059701492538094
H -4.89895223880597 2.059650746268657 0.08004029850746197
C 3.112266820480516 -1.4344993951034384 3.1532394297397106
O 2.4971252562524997 -2.052668097621077 2.2981114803737883
O 2.598225506735474 -0.771338039585338 4.061319827287564
O 4.344030854072267 -1.3764226454542534 3.2428655481425888
O 7.370509751343961 -2.5525500379474204 4.414433802021426
H 7.2391130624034945 -1.7361000917578502 3.909347915856972
H 7.094024168913659 -3.2524730575232783 3.804003270612659
O -1.8007582849355397 -7.0780027634709155 -2.1207792505378467
H -2.2009211246221185 -6.62690136267028 -2.879293973420454
H -1.6750471677065941 -7.987949919508136 -2.429251019950905
O 2.490023376922468 -6.007382876483971 -7.671886298320071
H 2.2979001537238193 -6.015311183162183 -6.722153090539602
H 2.991640588190995 -6.82381599169648 -7.8160358250053275
O 3.3372865020266644 -6.400990341365681 5.5239792061319655
H 3.383809767764978 -6.3217097574898915 6.488612572580254
H 3.726737520673301 -7.269304909704586 5.341442473429977
O 6.50527237665104 -5.9717110666911415 5.176516498397733
H 5.934322351937402 -6.305647697987892 4.468371207897489
H 5.947421997925853 -5.333016166504626 5.645380789778407
O 6.669985144268528 -5.002737739635058 2.039172569200401
H 6.78381980583405 -5.194774291442509 1.096235143123692
H 6.102288104595956 -5.720670030706321 2.357378855882739
O -5.076565883676992 -1.5801923417310526 7.272141991311716
H -5.318356851001464 -1.3046176277521395 8.169116384500139
H -4.276461456708861 -1.069216281325823 7.077981449649029
O -7.388641145229261 -7.4232298767141645 -0.016074030645917725
H -7.520756681165957 -7.456268916895896 -0.9754599091578077
H -6.77796661871608 -6.6816317084328976 0.11069632775765492
O -9.197722885592007 6.560320055512048 4.24479673314846
H -9.33947074986384 6.418663076418098 3.296741776857239
H -8.27162878396831 6.3108109777836106 4.382843389641469
O 3.4056357683903205 -4.7474998744159755 0.19694696102895443
H 3.5003125565690087 -4.699388204347525 -0.7662191356975621
H 4.309336704617084 -4.63201801341335 0.5270234702540729
O -6.5665987896325335 7.832565270587413 -0.49554660187402977
H -5.698616385027306 7.557953899871459 -0.8274539643552412
H -6.7559406869645136 8.648617095942646 -0.9825486640350825
O -5.328279272155054 -8.162170008869726 -2.684854849125889
H -5.411511735837244 -8.070720440555455 -3.645935850053764
H -5.221197356301906 -7.251512264390464 -2.3714894393928416
O 10.053828354980105 4.001227729581896 -3.241434386389363
H 9.238258577221723 4.412071403054053 -2.9173653035149747
H 10.645353436383386 4.751389647942281 -3.4036599041500075
O -10.053953293758378 -4.666191932034206 0.12572789529392114
H -9.393761359488645 -4.827819251213105 -0.5649171485022615
H -10.652241168532921 -4.014852758982369 -0.2702150865177382
O -5.571008860852271 -1.9179445530866241 -2.635888296868555
H -5.397611495721514 -2.816589473681692 -2.954224624287209
H -4.996491752221292 -1.3610731559725253 -3.1825017647473572
O 2.2846343956156314 2.8160195957654492 7.723814092226679
H 3.005624856052778 3.220545249727035 8.229283288266934
H 2.1093438051778906 1.9849515404523705 8.190248482727771
O -1.2856076213335872 6.834299614477642 -5.942689624530086
H -0.4827295440379984 6.291756088589009 -5.943509633353044
H -1.3009349705416016 7.230990050845722 -6.82663742522895
O -3.335540129880396 -0.7483224395549477 -7.300629451291201
H -3.2414319426482585 0.15484480797556466 -6.962398865767004
H -3.188705284925317 -1.3062885190962354 -6.522121052692739
O -1.5628911042832592 -3.210325205786294 -5.260455140564349
H -1.5691116674627774 -3.1150635589104425 -6.224744454063276
H -1.3217103638376158 -4.138026675871792 -5.1184559252873125
O 6.74604245107768 -9.297846960570535 1.3718957550453852
H 5.996427562888318 -8.878699626509462 1.8206277336855825
H 7.012996648588044 -8.647529330430785 0.7049741849481105
C 1.2263446638600102 -10.31033054018315 8.842689801049719
O 0.7267436826961385 -10.087663713140907 9.907413521577743
O 1.7259456450238817 -10.532997367225395 7.777966080521695
O -15.410092238365001 3.863084684347289 -17.665259845526055
H -15.337202066487622 2.990655835716013 -17.249901826680155
H -14.668098442838444 4.362524259547634 -17.292476714974534
O 10.829890961071296 -12.75326509208318 3.073271234206855
H 10.847122647580134 -12.587840807794391 2.1186481504467753
H 10.339530044198543 -13.584735275387628 3.1579202139962077
O 10.63121592196427 7.948498675280283 5.949140692538608
H 10.767981287013304 7.77741590393288 5.005216290284329
H 11.016544041593026 8.826990030664549 6.086024303823827
O -16.002028434423877 -4.136043897666978 -4.3191918623479335
H -15.948167283661483 -4.251864572334453 -3.358644151581767
H -16.467869316077394 -4.928865849858639 -4.6247856603924475
O 8.264434202880068 -6.623681845910275 -10.457489704851216
H 7.962597783213555 -6.719407833599901 -11.373294633831044
H 8.21047678069528 -7.521974713963429 -10.098156344173406
O 13.435400005806065 -6.561064892762557 -11.390515014999227
H 13.293776308859318 -5.931566919810621 -10.667574915535557
H 12.800544042773858 -7.2707011898095315 -11.210692390127084
O 1.6706919780483376 -5.825578744348827 10.57441403063012
H 2.313931615665336 -5.1468282101143235 10.82839796274932
H 2.210913035780618 -6.519256406629218 10.16706350106642
O 16.142880413992117 0.16477082901956486 5.893698951430958
H 16.452265185606386 0.0611780374792934 4.981275281454076
H 16.94892628644472 0.08151618690630791 6.425037506750171
O -16.165607964681968 5.504491158474176 -7.694389798318532
H -15.745203487362202 5.940743203444495 -6.938141435934383
H -17.08632857019 5.803994343608267 -7.655231746943834
O -2.3939356919352583 -0.3127563978792858 13.485450684167308
H -2.0380481283158605 -1.0610571055900055 12.983098765886222
H -3.1142461977164513 0.020831969354326074 12.92972276440112
O -3.8983531967628267 -18.54237961527304 -5.404377735352497
H -3.7818078061622087 -18.314548525832365 -4.469777540876789
H -3.94107775632635 -17.68354906539688 -5.851084174649623
O -19.183769144392382 -6.28875954335511 -7.270136837581749
H -18.288243396733147 -6.65341513539567 -7.333597781262984
H -19.437249603408443 -6.128926578584472 -8.19163725785818
O -5.414311958604812 -13.953071133312985 -10.760392346328636
H -5.954006524885393 -13.183678836367791 -10.524314762834107
H -5.63069670699929 -14.114061580964954 -11.691102645362164
O 9.849170934897128 10.560634024941944 -13.807111176361039
H 10.218747493168674 10.208031687609056 -12.98367197630827
H 9.287834307197073 9.843324507950232 -14.137762339273628
O 13.996863919253947 15.943845797119423 -1.4051120145889218
H 13.085683515250462 15.868792796416047 -1.084043991663151
H 14.489423372350055 16.270588461494228 -0.6372667432334753
O 6.70534581874775 -16.425819575321363 7.770536674728632
H 5.948959778523236 -16.463010694059836 7.1660002111960655
H 6.718670639453975 -17.3025650132231 8.182970706510245
O -3.39200405514564 5.152636754516638 8.40149834548522
H -2.9137054453215376 5.127230097332634 7.5591490720178145
H -4.073054985421069 5.828013834636993 8.263667382639149
O 22.370989514104643 -4.530064715651304 8.376774238838946
H 22.604310360884817 -4.555724739445431 9.316918005789868
H 21.981456270538363 -5.401204853707016 8.20842740541163
O -1.875840312383148 -12.386857525697174 0.6542593093175968
H -1.5596651320235528 -12.433284753983923 -0.2605330849982874
H -1.9495273489873286 -13.314691187967973 0.9238086741724365
O -7.375756360466875 14.457222688456438 -8.03643837347888
H -7.453144191546071 14.496152155845598 -7.071315077174385
H -7.580109198404493 13.534544986163484 -8.25060587712552