194

C -5.0710522388059704 1.0783507462686561 0.47044029850746183
C -3.8153522388059704 0.1782507462686569 0.19534029850746193
C -4.11845223880597 -1.3219492537313435 0.5608402985074619
C -2.96945223880597 -2.3874492537313436 0.7034402985074619
C -2.52015223880597 0.7359507462686565 0.7384402985074618
C -2.20305223880597 0.7852507462686571 2.097440298507462
C -1.5755522388059702 1.205650746268656 -0.18965970149253808
C -0.9533522388059701 1.2695507462686564 2.508640298507462
H -2.91125223880597 0.4298507462686567 2.840840298507462
C -0.32655223880597006 1.6562507462686575 0.21554029850746192
H -1.7850522388059702 1.178550746268657 -1.2573597014925382
C 0.004447761194029898 1.6956507462686563 1.569740298507462
H -0.7158522388059702 1.2676507462686573 3.5705402985074617
H 0.3943477611940298 1.9193507462686572 -0.5551597014925382
C -1.76045223880597 -2.1592492537313435 -0.1734597014925381
C -0.5287522388059701 -1.936549253731343 0.464840298507462
C -1.8068522388059702 -2.121249253731343 -1.5681597014925381
C 0.6114477611940299 -1.614449253731343 -0.2582597014925381
H -0.4544522388059702 -1.954049253731343 1.5506402985074619
C -0.6479522388059701 -1.8270492537313432 -2.2998597014925384
H -2.74345223880597 -2.290549253731343 -2.092259701492538
C 0.5698477611940298 -1.5506492537313434 -1.6506597014925382
H 1.5072477611940298 -1.351949253731343 0.2991402985074618
H -0.7173522388059701 -1.7640492537313435 -3.3840597014925375
C 1.7791477611940298 -1.082849253731343 -2.4255597014925376
H 1.4739477611940297 -0.9102492537313429 -3.464259701492538
H 2.1252477611940295 -0.1337492537313434 -2.0010597014925384
C 1.3965477611940298 2.0964507462686566 1.997440298507462
H 1.51704776119403 1.8448507462686567 3.057640298507462
H 2.1256477611940294 1.5207507462686571 1.4165402985074618
C 3.94864776119403 -1.4275492537313434 -3.522959701492538
H 4.81734776119403 -2.087049253731343 -3.615159701492538
H 3.4305477611940303 -1.3641492537313429 -4.484459701492538
H 4.26984776119403 -0.441449253731343 -3.176459701492538
C 2.60904776119403 -3.4296492537313434 -2.8992597014925376
H 1.9825477611940296 -3.869549253731343 -2.119359701492538
H 2.06294776119403 -3.373349253731343 -3.845759701492538
H 3.5215477611940305 -4.019849253731343 -3.0234597014925377
C 3.7281477611940304 -2.060049253731343 -1.156659701492538
H 3.9048477611940298 -1.032549253731343 -0.8295597014925382
H 3.12924776119403 -2.623249253731343 -0.4404597014925382
H 4.68244776119403 -2.5769492537313434 -1.3005597014925383
C 3.1110477611940297 3.755250746268656 2.588740298507462
H 3.40124776119403 4.809350746268656 2.534540298507462
H 2.9823477611940303 3.461750746268656 3.634840298507462
H 3.86514776119403 3.1392507462686563 2.091540298507462
C 1.99744776119403 3.9574507462686572 0.40494029850746194
H 2.67914776119403 3.230350746268657 -0.04295970149253803
H 1.03214776119403 3.981150746268657 -0.10175970149253821
H 2.4399477611940297 4.958250746268657 0.368240298507462
C 0.7418477611940297 4.4992507462686575 2.475440298507462
H -0.18475223880597014 4.424250746268656 1.901240298507462
H 0.57844776119403 4.189650746268656 3.511940298507462
H 1.1210477611940297 5.524350746268658 2.4432402985074617
N 3.00114776119403 -2.025349253731343 -2.490159701492538
N 1.7831477611940298 3.586450746268657 1.862540298507462
C -3.55075223880597 -3.8435492537313434 0.6444402985074619
H -2.62515223880597 -2.2736492537313433 1.7424402985074618
H -4.67195223880597 -1.3478492537313436 1.5102402985074619
H -4.83415223880597 -1.6757492537313432 -0.1945597014925382
H -3.7169522388059697 0.17335074626865676 -0.900559701492538
H -3.9132522388059705 -4.043149253731343 -0.34225970149253815
H -4.35435223880597 -3.9354492537313432 1.3449402985074619
H -2.78115223880597 -4.545049253731343 0.8904402985074619
H -5.24235223880597 1.138950746268657 1.5249402985074618
H -5.92805223880597 0.6501507462686567 -0.006059701492538094
H -4.89895223880597 2.059650746268657 0.08004029850746197
C -0.6647425613968752 3.0762551238185574 -2.8686920221468264
O 0.3718669687196335 3.7074948632741607 -3.0056320528305243
O -1.7836930181719783 3.5727432373520585 -2.6952535820514036
O -0.7552390249340339 1.8432620148362295 -2.882358319720125
O 2.696362202606864 7.431401634096118 0.2670307880209095
H 2.6159824539912684 7.936899180125518 1.0898179317408077
H 3.6447595971935205 7.244760956760508 0.1986964349842009
O 5.860228924786216 3.4446954279080786 -3.8229633150248716
H 5.077954233567905 3.405050838633855 -3.252488100032515
H 6.435619799726977 4.09082752706034 -3.3866141477516916
O 1.2165348136073326 4.4763921540876375 5.664534209748859
H 1.4814888513896938 4.4660383377756725 6.5965532617271965
H 0.2838086366916399 4.2144252654251115 5.683433216090736
O 5.260957021000233 0.29260788032395646 6.297802526929938
H 5.260719419591654 -0.609003946569969 6.652856627104222
H 5.174061288687702 0.853471119486044 7.083196379059225
O -2.8633338201264236 -10.215220648453055 -2.590254431759484
H -3.002830001455738 -10.399209539067957 -3.53134755171353
H -3.759769526323766 -10.118342007589202 -2.2353185250117376
O -5.19946418476145 8.016940123324485 4.518411380163467
H -4.827182524354082 8.855362838787558 4.830534869218458
H -4.430394287104907 7.431928885827171 4.445918009291264
O -2.822252877193675 3.1088235753792888 2.533186956710671
H -3.559881145112561 3.216602215794462 1.9141104994477243
H -3.2281329062114255 2.6989473355394145 3.311791358418801
O 0.5012648022585986 -0.2832199985813969 -7.305661606845153
H 0.5112408650358176 -0.1395013053712753 -6.347427411935871
H -0.4359128576553396 -0.21616522032552965 -7.542650287526934
O 1.818329813633631 5.832868219617887 9.105918396189765
H 1.298150279363293 6.233129348496231 9.818779980044113
H 2.733250522783624 6.064910762589106 9.325094805777848
O -6.870814439067189 0.1143384505712346 10.013955286462549
H -7.142224942632357 0.11222357902030655 9.083740675325512
H -5.902693512750346 0.128735032055463 9.975269956310342
O 2.552466926263946 1.8131812748975855 -5.217327323895563
H 2.5812029035409254 1.7746138672245064 -4.249518378093078
H 3.167643462094693 1.1189449970046863 -5.497605336805413
O -2.1865006676840646 7.019071192414769 -1.5302241369620897
H -2.608085378952637 6.41692912915614 -2.1616183274479046
H -1.2383862500546599 6.862263787755221 -1.6545319533985121
O 6.768820179936029 -8.283266411471548 -0.8052468016634184
H 6.673641299894878 -7.561959687943212 -0.1652273111110371
H 5.9955352424658654 -8.844091608192185 -0.6425586075464993
O 2.3588477112345654 7.704679071154649 -4.231726523421156
H 1.5897452732768764 7.850692400381981 -4.802803492415259
H 2.1430876974890087 8.188433929288275 -3.420313682753329
O -1.0556874478845923 2.266017610164414 -10.685381276278733
H -1.737146054853458 2.806958639036844 -11.11195404518281
H -0.42373852535097245 2.914686626318397 -10.340662534272415
O -3.924005712184414 -2.3926626599650587 -8.357966821123274
H -4.69347315494012 -2.97310609973095 -8.457829850677427
H -3.9148122122504594 -2.1766178262905242 -7.413402342804558
O -1.531809558941 -2.1464538050305646 6.072909820504876
H -1.8466216823071073 -1.9623548886862678 6.970667177969898
H -0.6717459996773438 -1.7020725889720867 6.030744038867161
O -6.750355572185489 7.173015903803183 -3.926332552076473
H -6.429284413475334 6.505912810611943 -4.551515830003193
H -6.040762423637955 7.239227428515121 -3.2697843498630204
O 8.610923591627868 2.8649432217947375 -0.2438716568541217
H 8.605380232546201 2.0320186146599397 0.2512780446498133
H 7.676760804963562 3.1191737675987965 -0.28472091500830166
O -2.91137865032365 4.590582047861165 4.71974105570834
H -3.4676060085712033 5.378373882355837 4.814411580902137
H -2.0457631331343693 4.874136606003058 5.0502989678176835
C -21.688113088693143 0.40019433157031337 5.335315843418849
O -22.22468612148421 0.715435376251893 4.312803876970799
O -21.15154005590207 0.08495328688873194 6.357827809866899
O 8.349275959658376 4.858470922478279 -11.36342741993871
H 7.44662739651633 5.1806074351963 -11.220525371207849
H 8.367874987506793 4.623469283284069 -12.303315844188697
O -5.1039235682093835 21.681287955747674 14.143400166619726
H -4.920425298008121 21.775784682196033 15.090166299528846
H -6.051595499950496 21.482335413100497 14.107376009942639
O 17.44030126788376 7.919993279213908 -5.417510156209798
H 16.94313448998668 7.576359840775032 -6.17494570583901
H 16.945795947267193 8.709826377981567 -5.1518221657529795
O 2.0501611467714373 6.928025487730526 -15.833889823106304
H 2.5920085326933893 6.186544532923818 -15.52473814362117
H 1.3111278235857222 6.502138713431327 -16.293685589722422
O -17.102809168113705 -9.870586340098685 -7.156591507954112
H -16.83441503491862 -10.549766441442817 -7.793495218184032
H -16.345503814234657 -9.266880203149324 -7.12513605539318
O -2.4440633356062302 18.733950403827677 -2.0328489438342316
H -1.8454314427131648 19.165194736670855 -2.661049181896833
H -2.2191991235295294 19.13702264238843 -1.1808332157348342
O -14.767410914842536 0.3348845811894119 12.553748391328472
H -14.491437133041854 1.0303842713079359 13.169448001287474
H -14.617984768183312 -0.48628399107767883 13.046004368352019
O -7.316212472536007 17.093247614421156 10.899792010191689
H -7.729291293497024 16.23438215942776 10.724625304472688
H -7.811724168193958 17.709798276474704 10.340064054049142
O -13.326919214025509 0.4306122631741358 10.187208097656239
H -12.390453101937942 0.679598158114664 10.18935330912818
H -13.704637416215945 0.9340010390997948 10.924019229701686
O -7.4545247959273615 5.149499046206275 9.718403733295705
H -8.307597541363648 4.863005016192976 9.359021737836088
H -7.072607982901753 5.690917849694367 9.011320165774945
O 12.817613728437472 -1.3347519142279782 -2.4355027788967494
H 12.79201403164597 -2.288927759574732 -2.6024173336275807
H 13.75952049640232 -1.1132328012766681 -2.487491886979858
O 0.1217016074532502 12.561885559059847 8.96777962503194
H -0.2656616368955813 13.179663626442487 8.329604622945114
H 0.3279827354154996 11.777049573302435 8.438211389573267
O -0.4071162653962501 -18.650046373332827 -3.495715201351887
H -1.1358048696366148 -18.01172883197144 -3.5187584507014504
H 0.24877370453058933 -18.23565304417621 -2.9151564529035774
O -10.532319245059483 14.115994607394448 -10.525111830639695
H -10.322098641980991 13.993526195760776 -9.587148002396173
H -11.361731827661504 13.629404875392462 -10.64455698471334
O -13.929554145244303 -4.875319321662873 -7.056224744377997
H -14.13627940259343 -4.942074861513577 -8.000563519804052
H -14.209121069456963 -5.729678490704345 -6.6944586742981205
O 12.746928770177787 2.8984673459214036 -1.5117469329506243
H 12.930583480997349 3.3220933441847587 -0.6598201064630675
H 12.270987211471391 2.0889270419697974 -1.2728200125877898
O 13.609675871053307 6.738257538001432 -4.443728110466186
H 13.92461102703872 7.508136201316134 -4.940789523369274
H 14.020790281927592 5.984958998160537 -4.893714993991765
O 10.629474785956816 -3.8209113122664204 11.739351799332045
H 10.667773593246487 -4.343506215910577 12.554456163781989
H 9.71472538097559 -3.5027664978502724 11.708057271909414
O -4.149216263940196 -7.68646833470125 -4.183198985385898
H -4.079600067256644 -8.635628706637142 -4.365450269073648
H -4.729396348171338 -7.355294628646068 -4.885108517006049
O 10.356424093196694 0.7180404956435583 3.7447175236300616
H 11.18444000887938 1.1819730954212306 3.9399700348551328
H 10.19826699742846 0.17911912838914268 4.534345307636418