194

C -5.0710522388059704 1.0783507462686561 0.47044029850746183
C -3.8153522388059704 0.1782507462686569 0.19534029850746193
C -4.11845223880597 -1.3219492537313435 0.5608402985074619
C -2.96945223880597 -2.3874492537313436 0.7034402985074619
C -2.52015223880597 0.7359507462686565 0.7384402985074618
C -2.20305223880597 0.7852507462686571 2.097440298507462
C -1.5755522388059702 1.205650746268656 -0.18965970149253808
C -0.9533522388059701 1.2695507462686564 2.508640298507462
H -2.91125223880597 0.4298507462686567 2.840840298507462
C -0.32655223880597006 1.6562507462686575 0.21554029850746192
H -1.7850522388059702 1.178550746268657 -1.2573597014925382
C 0.004447761194029898 1.6956507462686563 1.569740298507462
H -0.7158522388059702 1.2676507462686573 3.5705402985074617
H 0.3943477611940298 1.9193507462686572 -0.5551597014925382
C -1.76045223880597 -2.1592492537313435 -0.1734597014925381
C -0.5287522388059701 -1.936549253731343 0.464840298507462
C -1.8068522388059702 -2.121249253731343 -1.5681597014925381
C 0.6114477611940299 -1.614449253731343 -0.2582597014925381
H -0.4544522388059702 -1.954049253731343 1.5506402985074619
C -0.6479522388059701 -1.8270492537313432 -2.2998597014925384
H -2.74345223880597 -2.290549253731343 -2.092259701492538
C 0.5698477611940298 -1.5506492537313434 -1.6506597014925382
H 1.5072477611940298 -1.351949253731343 0.2991402985074618
H -0.7173522388059701 -1.7640492537313435 -3.3840597014925375
C 1.7791477611940298 -1.082849253731343 -2.4255597014925376
H 1.4739477611940297 -0.9102492537313429 -3.464259701492538
H 2.1252477611940295 -0.1337492537313434 -2.0010597014925384
C 1.3965477611940298 2.0964507462686566 1.997440298507462
H 1.51704776119403 1.8448507462686567 3.057640298507462
H 2.1256477611940294 1.5207507462686571 1.4165402985074618
C 3.94864776119403 -1.4275492537313434 -3.522959701492538
H 4.81734776119403 -2.087049253731343 -3.615159701492538
H 3.4305477611940303 -1.3641492537313429 -4.484459701492538
H 4.26984776119403 -0.441449253731343 -3.176459701492538
C 2.60904776119403 -3.4296492537313434 -2.8992597014925376
H 1.9825477611940296 -3.869549253731343 -2.119359701492538
H 2.06294776119403 -3.373349253731343 -3.845759701492538
H 3.5215477611940305 -4.019849253731343 -3.0234597014925377
C 3.7281477611940304 -2.060049253731343 -1.156659701492538
H 3.9048477611940298 -1.032549253731343 -0.8295597014925382
H 3.12924776119403 -2.623249253731343 -0.4404597014925382
H 4.68244776119403 -2.5769492537313434 -1.3005597014925383
C 3.1110477611940297 3.755250746268656 2.588740298507462
H 3.40124776119403 4.809350746268656 2.534540298507462
H 2.9823477611940303 3.461750746268656 3.634840298507462
H 3.86514776119403 3.1392507462686563 2.091540298507462
C 1.99744776119403 3.9574507462686572 0.40494029850746194
H 2.67914776119403 3.230350746268657 -0.04295970149253803
H 1.03214776119403 3.981150746268657 -0.10175970149253821
H 2.4399477611940297 4.958250746268657 0.368240298507462
C 0.7418477611940297 4.4992507462686575 2.475440298507462
H -0.18475223880597014 4.424250746268656 1.901240298507462
H 0.57844776119403 4.189650746268656 3.511940298507462
H 1.1210477611940297 5.524350746268658 2.4432402985074617
N 3.00114776119403 -2.025349253731343 -2.490159701492538
N 1.7831477611940298 3.586450746268657 1.862540298507462
C -3.55075223880597 -3.8435492537313434 0.6444402985074619
H -2.62515223880597 -2.2736492537313433 1.7424402985074618
H -4.67195223880597 -1.3478492537313436 1.5102402985074619
H -4.83415223880597 -1.6757492537313432 -0.1945597014925382
H -3.7169522388059697 0.17335074626865676 -0.900559701492538
H -3.9132522388059705 -4.043149253731343 -0.34225970149253815
H -4.35435223880597 -3.9354492537313432 1.3449402985074619
H -2.78115223880597 -4.545049253731343 0.8904402985074619
H -5.24235223880597 1.138950746268657 1.5249402985074618
H -5.92805223880597 0.6501507462686567 -0.006059701492538094
H -4.89895223880597 2.059650746268657 0.08004029850746197
C -3.1307622701198503 0.635451675271679 -2.9727640259646697
O -3.3116166063327297 1.8151476079828552 -2.71317836762102
O -4.0244539591268005 -0.19608398328046472 -3.1689656509736337
O -2.026046509231093 0.0905905319562309 -3.079430827496153
O 2.0178184906174454 7.312040540936241 -6.609955860917047
H 2.5224039708113315 6.5901300811561185 -6.205968066376717
H 2.3293767969018737 8.103628025744882 -6.145970279266598
O 4.405517656765237 -4.049156558957389 -5.95776217665883
H 4.312300661413202 -4.6567244789014035 -6.706854408184723
H 4.102185841305265 -3.1979552707748304 -6.307630896361108
O 0.8906784908640994 -5.056101713888896 7.654388638859382
H 1.6077424777849267 -5.707339192062888 7.628382051563316
H 0.09332672113206275 -5.5788797730466 7.481486352962138
O 4.433923548581333 0.5326525872845072 5.756832578473411
H 5.080475337977418 -0.18855977238027344 5.78495503916734
H 3.6350356915197297 0.14610953003076999 6.145837207017147
O 11.42938846614798 -6.269453252704426 1.8217976521415693
H 11.408725543223106 -5.3838932058629165 1.4289569669341078
H 12.36025767312143 -6.39924625228641 2.057590444796757
O -5.797210187715804 1.703939710788422 7.98621113658328
H -5.7298854835013024 1.390891666367514 7.07164256999755
H -4.875838770812459 1.8267506826718538 8.25998864040448
O 2.2959562388483663 -5.007830313034508 -9.940444255085238
H 2.9333472518443253 -4.858125702349211 -10.654789117873198
H 2.290651258912393 -5.97043386757281 -9.829411835143567
O -2.612083725143227 -5.853525871846253 -5.544219659288962
H -2.5897441928580287 -5.880467392039639 -6.512590691841543
H -3.1977661976567955 -5.107901372169585 -5.344264436370652
O 2.3123779111251714 -1.0313074438326324 -7.185747340099491
H 3.0692379549406414 -1.3960851775748049 -7.668517923235591
H 2.5485294055603225 -0.10164761344580375 -7.048171849036665
O -3.4998081163242403 -7.99345000732564 5.028934109657283
H -2.616366527159401 -8.161591107714123 4.668064485285745
H -3.7647128648592405 -7.156395123726198 4.618901744659185
O -1.075236421596355 8.531047855548405 1.5092781742696457
H -0.8796493104119993 8.75157852016588 2.4323595708983152
H -1.2373150909272357 9.390710917914957 1.0925386051734378
O -5.030849699679796 -2.024364525891001 9.103878168974122
H -4.721139505350964 -2.674652166887448 8.455670689538659
H -4.221983076825602 -1.741044080020579 9.55601338733721
O -1.8931581778892115 1.9905014692340763 -8.121790904583747
H -1.0927122605432191 2.512673944355895 -7.96182341873338
H -2.0819913454726167 2.1334705983691853 -9.061399231087279
O -8.178398647896215 2.752543742290594 -2.2652615712489714
H -8.345254505216593 3.5535934015008435 -1.746179763383366
H -7.263038096366395 2.8550848992677333 -2.5661973054661162
O -7.68895855390706 0.3598118136552442 4.919095780564217
H -7.696347931235586 0.32636896046095876 3.950697964802057
H -8.618468884545695 0.2385294283188406 5.164581162090619
O 5.354577891273919 6.990359393066633 1.542743004745146
H 6.2506460655777305 7.168194336457624 1.86585895422607
H 4.826220859630205 6.908849505319655 2.350924252740988
O 8.122360955539552 2.3162375583489383 -6.583293063849693
H 8.212598276958989 2.528349259170111 -7.5244801914166795
H 7.881261773835482 1.3777319506337289 -6.576940649447916
O -4.3939916679783195 -6.431707509913865 -2.528582055612551
H -5.002773074600466 -5.787550248625239 -2.1369010903100527
H -3.592765315769073 -6.35461662010568 -1.9890866695951666
O 9.428040270351913 -1.1231005595965589 -1.5402445510267682
H 9.29562723531504 -1.4876495739432807 -2.428241263403092
H 9.04289986923932 -0.23542462787808915 -1.59182222040583
O -1.2521235075364112 7.740601645455406 8.05245041617098
H -0.35684125273549716 7.544424531522258 8.367016118540853
H -1.8277353743262763 7.291811460839806 8.68980455109393
C 0.507760279832274 -13.131266288211892 -14.25875258100422
O -0.36121909666107577 -13.814277339090076 -14.718305630072024
O 1.3767396563256202 -12.44825523733371 -13.79919953193642
O 6.82732203657315 -7.8840990415524566 -8.684236346885012
H 6.208469093607962 -8.208358595377401 -8.012787068356412
H 6.5825615578049685 -6.9534697991500725 -8.798181357827715
O -16.799220128518357 8.259941995177433 7.287777859301995
H -16.44604569526834 8.15240843794909 6.391858381520454
H -16.023512454693336 8.495927455719423 7.818391100261701
O -7.1131300696824376 -7.822653495721495 -13.852137177380495
H -6.6881982082151525 -8.32336863198136 -13.139617267251513
H -6.387629093797614 -7.622603477576163 -14.462538904548943
O -0.0641926218182971 -2.226724191402514 5.8053834354592535
H 0.6163318342545485 -2.0614449230347756 5.1356546955693005
H -0.8964505197515915 -2.170128175203075 5.3123260081974735
O -14.708772355205106 -13.307116385007973 -5.3725649493748175
H -14.896383592789963 -13.318636588468372 -4.4219668927051705
H -15.443313042499621 -13.804742044190284 -5.7621552807901
O 3.779602374417184 13.612537572177885 -7.5272765030912625
H 3.625777975136919 13.921460430917714 -6.621808624901165
H 2.8963934140208476 13.606858800226842 -7.92586354267578
O 6.682301830422423 4.617857378149519 5.542207168524795
H 6.630163008811568 5.32133359908068 4.877850256341712
H 7.56703855482659 4.721270887311716 5.923662957461529
O -8.810306786835303 -6.156309699661229 -4.172226026996295
H -8.014923147021358 -6.272850951201697 -4.713290125884497
H -8.814870991187785 -6.932760235137501 -3.5925143070032997
O 5.097539553560201 3.567011076497729 -3.9101015285210816
H 6.062322145013967 3.5206067477935363 -3.8325867144190817
H 4.818811351782215 2.6390447327874056 -3.922389684383705
O 8.32049390532164 -4.666960075288699 11.393661526355103
H 7.9865855112192445 -4.260935830875699 10.57964871675269
H 7.56738221715909 -4.6253232401690045 12.001979784682245
O 6.892502184378478 5.401337204014379 16.14106816571255
H 6.315281736433235 4.881208051834965 16.720075571906133
H 7.530051333396832 5.805907730103122 16.748370163326797
O 2.8052020576641366 8.87383183472756 -2.2367613793079713
H 2.0994130674118163 9.537165970989008 -2.265346022193427
H 3.378347787240459 9.109647585277163 -2.981648517578698
O -4.870368617499789 6.75888376288331 -1.8244701402918722
H -4.13814974501467 6.130051039172493 -1.7384917402889872
H -5.234096188519533 6.575806508281596 -2.7037578731913903
O 5.27498489773659 15.698876635807675 -8.798708893107776
H 5.4503768468375835 15.56999132942201 -7.854466551921772
H 4.324428525030982 15.531747737725471 -8.885152273621188
O 2.7652953385731815 7.581634384056432 -11.534672076263652
H 3.1074665260252514 8.135606568876701 -12.252307815216986
H 2.5407736310234865 6.74595339843475 -11.970778986790577
O -19.15255835868215 -5.363188931036487 3.3467513039652625
H -19.357668449372103 -5.495382477887447 4.284526369622334
H -18.22171564068468 -5.621859416762461 3.2720294298896984
O 2.7246401443434287 11.82644003009293 9.94312612386528
H 2.8250863200734146 12.481416820748667 9.23610184819751
H 2.559401587074362 10.996297429827072 9.471404355536242
O 9.632631971811797 -1.1641344008922108 6.0329111719743524
H 10.506471885373221 -1.069543191075862 5.624960604635065
H 9.637116730378349 -0.5120620584709383 6.749670191094331
O 5.110411563004419 19.11300856187517 -0.8737403430319679
H 5.472151441790966 19.613737147764414 -0.12715980466463916
H 4.524717253528525 18.46278773007093 -0.4576430106260094
O 1.0601187492133022 -16.8853959065391 -8.72731410383383
H 1.2542381615038103 -17.808099148747154 -8.503922659300407
H 0.3765080156351859 -16.948966296523817 -9.411124834046497