194

C -5.0710522388059704 1.0783507462686561 0.47044029850746183
C -3.8153522388059704 0.1782507462686569 0.19534029850746193
C -4.11845223880597 -1.3219492537313435 0.5608402985074619
C -2.96945223880597 -2.3874492537313436 0.7034402985074619
C -2.52015223880597 0.7359507462686565 0.7384402985074618
C -2.20305223880597 0.7852507462686571 2.097440298507462
C -1.5755522388059702 1.205650746268656 -0.18965970149253808
C -0.9533522388059701 1.2695507462686564 2.508640298507462
H -2.91125223880597 0.4298507462686567 2.840840298507462
C -0.32655223880597006 1.6562507462686575 0.21554029850746192
H -1.7850522388059702 1.178550746268657 -1.2573597014925382
C 0.004447761194029898 1.6956507462686563 1.569740298507462
H -0.7158522388059702 1.2676507462686573 3.5705402985074617
H 0.3943477611940298 1.9193507462686572 -0.5551597014925382
C -1.76045223880597 -2.1592492537313435 -0.1734597014925381
C -0.5287522388059701 -1.936549253731343 0.464840298507462
C -1.8068522388059702 -2.121249253731343 -1.5681597014925381
C 0.6114477611940299 -1.614449253731343 -0.2582597014925381
H -0.4544522388059702 -1.954049253731343 1.5506402985074619
C -0.6479522388059701 -1.8270492537313432 -2.2998597014925384
H -2.74345223880597 -2.290549253731343 -2.092259701492538
C 0.5698477611940298 -1.5506492537313434 -1.6506597014925382
H 1.5072477611940298 -1.351949253731343 0.2991402985074618
H -0.7173522388059701 -1.7640492537313435 -3.3840597014925375
C 1.7791477611940298 -1.082849253731343 -2.4255597014925376
H 1.4739477611940297 -0.9102492537313429 -3.464259701492538
H 2.1252477611940295 -0.1337492537313434 -2.0010597014925384
C 1.3965477611940298 2.0964507462686566 1.997440298507462
H 1.51704776119403 1.8448507462686567 3.057640298507462
H 2.1256477611940294 1.5207507462686571 1.4165402985074618
C 3.94864776119403 -1.4275492537313434 -3.522959701492538
H 4.81734776119403 -2.087049253731343 -3.615159701492538
H 3.4305477611940303 -1.3641492537313429 -4.484459701492538
H 4.26984776119403 -0.441449253731343 -3.176459701492538
C 2.60904776119403 -3.4296492537313434 -2.8992597014925376
H 1.9825477611940296 -3.869549253731343 -2.119359701492538
H 2.06294776119403 -3.373349253731343 -3.845759701492538
H 3.5215477611940305 -4.019849253731343 -3.0234597014925377
C 3.7281477611940304 -2.060049253731343 -1.156659701492538
H 3.9048477611940298 -1.032549253731343 -0.8295597014925382
H 3.12924776119403 -2.623249253731343 -0.4404597014925382
H 4.68244776119403 -2.5769492537313434 -1.3005597014925383
C 3.1110477611940297 3.755250746268656 2.588740298507462
H 3.40124776119403 4.809350746268656 2.534540298507462
H 2.9823477611940303 3.461750746268656 3.634840298507462
H 3.86514776119403 3.1392507462686563 2.091540298507462
C 1.99744776119403 3.9574507462686572 0.40494029850746194
H 2.67914776119403 3.230350746268657 -0.04295970149253803
H 1.03214776119403 3.981150746268657 -0.10175970149253821
H 2.4399477611940297 4.958250746268657 0.368240298507462
C 0.7418477611940297 4.4992507462686575 2.475440298507462
H -0.18475223880597014 4.424250746268656 1.901240298507462
H 0.57844776119403 4.189650746268656 3.511940298507462
H 1.1210477611940297 5.524350746268658 2.4432402985074617
N 3.00114776119403 -2.025349253731343 -2.490159701492538
N 1.7831477611940298 3.586450746268657 1.862540298507462
C -3.55075223880597 -3.8435492537313434 0.6444402985074619
H -2.62515223880597 -2.2736492537313433 1.7424402985074618
H -4.67195223880597 -1.3478492537313436 1.5102402985074619
H -4.83415223880597 -1.6757492537313432 -0.1945597014925382
H -3.7169522388059697 0.17335074626865676 -0.900559701492538
H -3.9132522388059705 -4.043149253731343 -0.34225970149253815
H -4.35435223880597 -3.9354492537313432 1.3449402985074619
H -2.78115223880597 -4.545049253731343 0.8904402985074619
H -5.24235223880597 1.138950746268657 1.5249402985074618
H -5.92805223880597 0.6501507462686567 -0.006059701492538094
H -4.89895223880597 2.059650746268657 0.08004029850746197
C -1.6768461200037295 4.292467736468939 -0.953386070216527
O -1.8250287818752522 4.884915717518067 0.1043581271542181
O -0.8653878665137653 3.381019251431404 -1.1519524975545812
O -2.315423863313943 4.512691214906824 -1.9889383236994473
O -3.2305805082968426 -7.283265394712228 -4.599591241213104
H -3.25554394881814 -7.293799372030901 -3.6309668460736924
H -2.291088151125172 -7.170319504997799 -4.8082998445638845
O -2.2512186636308593 -1.2900340485206025 -7.665795772922431
H -2.3379183868463755 -2.141932404769856 -8.119359115261926
H -1.569532228551562 -0.8234825052699919 -8.172348046650772
O -7.959661775276132 0.5948093712466069 -8.192266539348541
H -8.87550809132303 0.8711086465461984 -8.03782693059405
H -7.697912108361811 0.1756627792687553 -7.358740780536256
O 1.8003436216386706 2.0845251189903804 -5.340500852507581
H 2.0087338506813266 1.8855256620968057 -4.415330551700421
H 2.1065264059815725 2.9962761483028033 -5.458501307675197
O 5.203417118562831 -1.3587133785875527 -9.65180085416217
H 4.41108463531837 -1.6547474777392326 -9.179000256621176
H 5.429194865604753 -0.5177684441787389 -9.22659740811213
O 5.330534757716898 3.008953975183604 -2.156180261939295
H 5.479151288021774 3.2173008268465044 -3.090777540569134
H 4.365567187406482 3.004306506466893 -2.0679876682381373
O -2.48325627138153 -3.7874137207803886 -10.35614795254168
H -2.3154550091410324 -4.370403383283143 -9.600546770233564
H -1.6116845208308055 -3.677581801669638 -10.765124207948267
O 0.8672477673311871 3.7166673761085143 -9.039273739746694
H 0.505888257896296 3.8748199344130443 -8.154189319963637
H 0.8163224428202895 4.582654115324563 -9.471055540110502
O 6.4451105847272645 2.5456589390628173 0.4450561012395986
H 7.2559822755217835 2.378524852036938 -0.058452245187811336
H 5.924918054354357 3.1229158572160864 -0.13385332698594077
O -7.007900748329846 -8.067691687666679 -0.46811973285657515
H -7.757103649614352 -8.152316071206599 -1.0768077344775762
H -6.366525996742904 -7.5326150057098715 -0.9593358937805396
O 4.8129320351343985 7.269773541879307 -5.853086025759953
H 4.618816638651563 8.104562841674431 -5.4009650301228564
H 5.358980878730371 6.7815022260280164 -5.21874879145603
O 0.6526903859234414 10.066345610994757 0.31917516106487476
H 0.9185869757827669 9.242336927239164 0.754233834690119
H 1.3634605783938751 10.234776406820849 -0.317534148442165
O -3.9532006946959344 0.6875439588861174 -2.8960454166614684
H -3.6623297398865318 1.4497163187606439 -3.418974416040507
H -4.246521569012134 0.046063570126591236 -3.5604456874525834
O 5.737554042859282 6.168079445351859 5.340898898538348
H 5.7182202983209685 6.212187680525256 4.373093119049501
H 5.14877927020301 6.885418505970424 5.619701487289653
O -6.651819733327126 -0.8619397353289395 7.499293229673404
H -6.706766923060952 -0.7107370892003053 6.543737934023772
H -6.833565256069962 0.008299319679392347 7.884798737287936
O 9.97695709616259 -2.4110955783428647 -0.19208512888171753
H 9.36468356431355 -2.422977964492933 -0.9430493677083615
H 10.525372350480477 -1.6279010509863852 -0.34959381261156763
O 4.755568287077908 -7.657711071914209 -1.1466369184122176
H 5.130490512405953 -7.566487921867327 -2.0355008105523993
H 5.314150019283488 -8.32767689772952 -0.7246248510660096
O 2.7187159520624906 -3.313570192067937 3.654829814216285
H 3.056265543130754 -3.346341101337244 2.7471108610290598
H 1.785886659426708 -3.5606094661497365 3.5667216297964304
O 5.4017222986252955 5.783078235584111 -3.391281047965807
H 5.601912322056483 5.1364843148052275 -4.0846839705371005
H 5.912705819551462 5.473790866842281 -2.6282613174354292
O 6.420276884623702 -1.8619468460442508 2.6367891112582793
H 7.257624448933727 -1.4697634690158616 2.926631503303811
H 5.770000308256823 -1.1580654087730178 2.7805014656108353
C 10.078994791405274 -0.12045462382688876 12.625345725104879
O 10.745993517097654 -0.00039009503362819054 13.612014598714659
O 9.411996065712895 -0.24051915262014933 11.638676851495099
O -6.02052128967206 4.389652466174958 20.111081840040015
H -6.497263044916916 5.213553547994554 20.29238728144362
H -6.651331277487312 3.8621730158499346 19.59843563352198
O -6.996895177650349 -2.2555419532343874 16.185476818848556
H -6.861053358386194 -2.3954848091326344 17.13465032992124
H -7.901228140977835 -2.566962567254471 16.030038609573346
O 9.673231199826478 10.668515465532657 -7.321442075600398
H 9.997883258608162 10.032128759654825 -7.9761025663975555
H 9.631925194974585 10.157780174537635 -6.499003493823373
O -9.277152488602447 -8.26484791592395 4.729180561137715
H -9.235371102902343 -8.424426901251053 3.774321293941259
H -9.203901937654882 -7.301921239541606 4.808983549785582
O 1.4918977080901552 -8.902167500199083 -9.62165958538195
H 0.9913970366000333 -8.301153097459576 -10.193715633717787
H 1.856790549840623 -9.55853288596315 -10.234031726085668
O -5.107381872459346 -12.769971784874269 -7.477091402345779
H -5.152743800789592 -12.027420239144226 -6.856183313904273
H -5.183196406415648 -12.351848260274203 -8.347945476756067
O 20.099576937584363 -10.860607284115872 4.512625381487746
H 19.608752017389655 -10.46704136765364 5.249622073485143
H 19.7584408640299 -10.399644051371192 3.7315357440725387
O 4.3332570541154825 -8.14157723121911 3.90071040209739
H 4.252323083994422 -8.932154994977255 3.3462702801440707
H 4.022534117720911 -8.433211214150194 4.7709763505856015
O 9.16329840863179 -17.555234147581743 -9.794807184485926
H 10.072024334146505 -17.695721378189106 -10.100499656152632
H 8.624908643176536 -17.698005013075186 -10.587722618009128
O 13.452657661258524 -5.3632826134975335 15.71270461357248
H 13.88469662721453 -5.375163236784274 14.84542810657717
H 13.322752313594295 -6.30037357036275 15.92234021052507
O -7.371422997428819 7.468607373769499 -8.40764642291554
H -7.177319799803977 6.746065233252413 -7.791834632878359
H -7.133224716704566 8.267493796718158 -7.913678805972579
O 10.385775802507402 -0.6168571218254026 -6.38562707084821
H 10.95892018507212 -0.3077110962037666 -7.103193519671492
H 10.36818163517654 0.12592849769045023 -5.7635965948935475
O -15.568854817188887 9.266823677178614 0.021681805444700553
H -15.152870870664938 8.812163233356546 0.7694843154417468
H -15.461173183977179 10.206996341814087 0.2301091809045736
O 5.921335843993742 10.845269258167642 -10.730999084760153
H 5.965697263797468 11.333320957582666 -11.566944633244685
H 5.9634328893026565 11.536919736641522 -10.053644378049476
O 14.757276405729536 -7.476258165744604 -0.4022955886906368
H 14.773056904052101 -7.079732092360079 -1.2863122208299558
H 15.560315717980098 -8.017836904862408 -0.37432638034083315
O -16.46958610729664 -4.520624497833099 8.008513329820374
H -17.322997641941907 -4.954336834770962 7.8583476938635926
H -16.383190436063586 -4.501790693482322 8.973470852256398
O 1.4526956596455756 -7.28365886452654 7.049697890616445
H 1.3414872854068303 -6.384357300377884 6.7063951799965675
H 1.1238530200739438 -7.8493583840522945 6.334989197295949
O 1.0614493579319904 8.07561775340403 11.735567930218057
H 0.47825761778821363 7.342169396272428 11.488771944535493
H 0.7544706194011779 8.331944957255411 12.618190365325935
O 10.446048288598837 17.420225357389665 -7.588008201541685
H 10.830402765972313 16.656244293372865 -7.13240757989294
H 10.322557082633804 18.074697581194506 -6.884177273962311
O 6.766421904357081 6.497332171615182 10.336253709504335
H 7.507704640075696 6.887684714131737 9.84933261201893
H 6.992147499987892 5.556612228352913 10.39153379747233