194

C -5.0710522388059704 1.0783507462686561 0.47044029850746183
C -3.8153522388059704 0.1782507462686569 0.19534029850746193
C -4.11845223880597 -1.3219492537313435 0.5608402985074619
C -2.96945223880597 -2.3874492537313436 0.7034402985074619
C -2.52015223880597 0.7359507462686565 0.7384402985074618
C -2.20305223880597 0.7852507462686571 2.097440298507462
C -1.5755522388059702 1.205650746268656 -0.18965970149253808
C -0.9533522388059701 1.2695507462686564 2.508640298507462
H -2.91125223880597 0.4298507462686567 2.840840298507462
C -0.32655223880597006 1.6562507462686575 0.21554029850746192
H -1.7850522388059702 1.178550746268657 -1.2573597014925382
C 0.004447761194029898 1.6956507462686563 1.569740298507462
H -0.7158522388059702 1.2676507462686573 3.5705402985074617
H 0.3943477611940298 1.9193507462686572 -0.5551597014925382
C -1.76045223880597 -2.1592492537313435 -0.1734597014925381
C -0.5287522388059701 -1.936549253731343 0.464840298507462
C -1.8068522388059702 -2.121249253731343 -1.5681597014925381
C 0.6114477611940299 -1.614449253731343 -0.2582597014925381
H -0.4544522388059702 -1.954049253731343 1.5506402985074619
C -0.6479522388059701 -1.8270492537313432 -2.2998597014925384
H -2.74345223880597 -2.290549253731343 -2.092259701492538
C 0.5698477611940298 -1.5506492537313434 -1.6506597014925382
H 1.5072477611940298 -1.351949253731343 0.2991402985074618
H -0.7173522388059701 -1.7640492537313435 -3.3840597014925375
C 1.7791477611940298 -1.082849253731343 -2.4255597014925376
H 1.4739477611940297 -0.9102492537313429 -3.464259701492538
H 2.1252477611940295 -0.1337492537313434 -2.0010597014925384
C 1.3965477611940298 2.0964507462686566 1.997440298507462
H 1.51704776119403 1.8448507462686567 3.057640298507462
H 2.1256477611940294 1.5207507462686571 1.4165402985074618
C 3.94864776119403 -1.4275492537313434 -3.522959701492538
H 4.81734776119403 -2.087049253731343 -3.615159701492538
H 3.4305477611940303 -1.3641492537313429 -4.484459701492538
H 4.26984776119403 -0.441449253731343 -3.176459701492538
C 2.60904776119403 -3.4296492537313434 -2.8992597014925376
H 1.9825477611940296 -3.869549253731343 -2.119359701492538
H 2.06294776119403 -3.373349253731343 -3.845759701492538
H 3.5215477611940305 -4.019849253731343 -3.0234597014925377
C 3.7281477611940304 -2.060049253731343 -1.156659701492538
H 3.9048477611940298 -1.032549253731343 -0.8295597014925382
H 3.12924776119403 -2.623249253731343 -0.4404597014925382
H 4.68244776119403 -2.5769492537313434 -1.3005597014925383
C 3.1110477611940297 3.755250746268656 2.588740298507462
H 3.40124776119403 4.809350746268656 2.534540298507462
H 2.9823477611940303 3.461750746268656 3.634840298507462
H 3.86514776119403 3.1392507462686563 2.091540298507462
C 1.99744776119403 3.9574507462686572 0.40494029850746194
H 2.67914776119403 3.230350746268657 -0.04295970149253803
H 1.03214776119403 3.981150746268657 -0.10175970149253821
H 2.4399477611940297 4.958250746268657 0.368240298507462
C 0.7418477611940297 4.4992507462686575 2.475440298507462
H -0.18475223880597014 4.424250746268656 1.901240298507462
H 0.57844776119403 4.189650746268656 3.511940298507462
H 1.1210477611940297 5.524350746268658 2.4432402985074617
N 3.00114776119403 -2.025349253731343 -2.490159701492538
N 1.7831477611940298 3.586450746268657 1.862540298507462
C -3.55075223880597 -3.8435492537313434 0.6444402985074619
H -2.62515223880597 -2.2736492537313433 1.7424402985074618
H -4.67195223880597 -1.3478492537313436 1.5102402985074619
H -4.83415223880597 -1.6757492537313432 -0.1945597014925382
H -3.7169522388059697 0.17335074626865676 -0.900559701492538
H -3.9132522388059705 -4.043149253731343 -0.34225970149253815
H -4.35435223880597 -3.9354492537313432 1.3449402985074619
H -2.78115223880597 -4.545049253731343 0.8904402985074619
H -5.24235223880597 1.138950746268657 1.5249402985074618
H -5.92805223880597 0.6501507462686567 -0.006059701492538094
H -4.89895223880597 2.059650746268657 0.08004029850746197
C -0.0643679961151315 2.9561139707945734 -3.6909801043124726
O -0.10338773298156506 2.9273913615273446 -4.91140133095996
O 0.9568644773590365 3.1236811263678956 -3.0144914143886132
O -1.0400885841772256 2.822056524782773 -2.943553639969287
O 2.280451506597231 -5.833441525390487 1.6019485153668658
H 1.8647572986258565 -5.107899227381743 1.1123016465325577
H 1.8056751780713003 -6.622163511534362 1.2995133805946342
O -4.5984065126071805 4.312815627779184 -5.504962342187876
H -4.274416462691105 4.383466877503895 -4.594464563295629
H -3.801147035125866 4.126658696008662 -6.023310552004412
O 2.230674324077191 7.575603064384497 6.2909995300775075
H 2.011048772183679 7.529791988049651 5.348326034565665
H 1.7177940967220713 8.331485542467625 6.614353045622136
O -7.286950921298289 -2.2194335369773643 -2.4577806782084126
H -7.387769809118948 -2.9906617168646856 -3.0357166636828374
H -7.801206305875637 -1.527083110826375 -2.8995433193877522
O 8.574477797643434 -1.071829183852338 -6.218914496518397
H 9.061144359943466 -0.9413296374124256 -5.391211118237235
H 8.59364627709567 -0.2001078269862928 -6.641639454001521
O -3.3807112625638824 6.448539432985684 -2.65352508129221
H -3.1048404329806565 7.354890292997844 -2.8569722755227565
H -3.0899761042815683 6.315125692179562 -1.7388471129324852
O -4.913705420149878 6.135543869131741 -0.002300129137865259
H -4.494330024880291 6.952347847711163 -0.31201434469683464
H -5.806644485676154 6.174406467788499 -0.3766147935349533
O 7.975599444947618 3.9680209701871 -4.789286783076485
H 8.876930984738689 3.613684571948855 -4.821138457465845
H 7.902659885728043 4.495343957201568 -5.598960935045653
O -1.5185907031907502 -7.0085655627689505 -2.417896298823189
H -1.0561724514201707 -6.220643041782127 -2.094918252740782
H -1.7207024400745912 -7.507954944112522 -1.6124628528358242
O 4.506356078875504 -3.251048504442375 7.50058553239607
H 4.51498385010381 -3.2767331224937046 8.46920992753548
H 4.4643477338917466 -2.305724241483315 7.291876929045289
O 5.714681794133176 -3.335155384148311 3.6838687144586393
H 5.563733539040285 -3.347036289060672 2.7267684975101343
H 5.339198398209159 -2.4887746913787545 3.969550156964612
O -9.979303781031206 -0.8324670044249243 2.301415408486229
H -9.631609879309607 -0.4130216730787435 1.50007782568014
H -10.920980494992019 -0.9577044055581725 2.1103067900480266
O -3.9308542877217625 -4.140141285618217 8.147187624397151
H -3.9665304497392384 -4.0363975152521805 7.184414650911737
H -3.0171841498472736 -4.4130487641496 8.319496450688936
O -9.020445557416483 -0.08926582643201453 5.7266818526287775
H -8.876771745771983 -0.09098165460862584 4.768390535397315
H -9.615820125880475 -0.8391746375077398 5.875436155414637
O -4.812840466032665 -1.5673614026019738 4.651033186163747
H -4.733898617851122 -1.1203277702752747 3.7949394570227835
H -5.04105612405942 -2.4799187544453405 4.418399058555528
O -3.000076405157869 8.600306606073893 3.746923982154951
H -3.0260356914372943 8.373397738555981 2.8052202929843064
H -2.250207001164357 8.091262450425193 4.089753194525069
O -5.7954830077419475 5.222638925897707 3.2235245989418946
H -4.91867294379614 5.061537650521347 2.8437643486056334
H -5.900495202642324 4.515910945886498 3.8781007560783127
O -8.478002476634952 4.118162442913823 -1.4274044918161113
H -8.428742983464854 3.9195549947494026 -0.48025300405597293
H -7.608525459101612 3.8576840136291146 -1.7667017776270957
O 8.295568218097019 -2.09030638594993 6.890805852854468
H 8.385554895296162 -2.5429695518670408 7.742842127345501
H 8.172429961588469 -1.1598969104556494 7.131922260414161
O 3.9435552289546627 -7.930048572601157 3.5800735479896435
H 4.361411722814143 -7.8673314283949525 2.7080472483506464
H 3.433067117919044 -8.752517920742271 3.5363928410400804
C -4.552822851235538 16.109560764563334 -4.330572255269406
O -4.6214163275506 15.967472401141187 -3.1440124846353963
O -4.484229374920478 16.25164912798548 -5.517132025903415
O -18.46726782857198 -0.7390906223583444 7.84765753689448
H -18.650329009267796 -1.2630064773373562 7.0533225081289945
H -17.914155708505334 -1.321422697622065 8.389799843908447
O -2.0637008217989754 -18.256554023339636 -5.223410660443237
H -2.790280807730727 -17.871946262562467 -4.710452814910693
H -2.460948993834551 -19.03261164731604 -5.64636502959255
O 8.743973879175625 -1.5567069890770693 -0.8738777376903463
H 8.693719139687115 -1.7352044161476836 0.07721662491943909
H 9.04730913286189 -2.394996290090043 -1.2536417643941238
O 9.997180151928397 -11.928547849752535 10.86804091619234
H 10.742665031319852 -11.313733243816037 10.940308833180804
H 9.541684471257014 -11.650085160052477 10.059372776820743
O 7.551830604707694 -7.278653797865523 9.501200883323248
H 7.558570716741646 -6.669274798195382 10.25457938218739
H 6.836015758905109 -7.898262398184196 9.707734738271427
O -14.263574798727111 6.043563286349038 5.682643890096872
H -13.698929303677623 6.041097323866411 4.895156276956605
H -15.13351681472388 5.779017465142799 5.347713536760846
O -6.711920314193185 -15.479974509925928 5.324516849875563
H -7.639205301743738 -15.322380433960245 5.557484693115557
H -6.591646692668587 -14.989183077928411 4.49770370862587
O 13.21801119129708 9.944553862742245 -9.388843739659386
H 14.101357658348917 10.130227113667598 -9.036435141668573
H 13.23161103590112 10.338474757219279 -10.27405745251135
O 10.856401645924919 15.332919099147501 6.531066785092185
H 10.342458823678342 15.233774046317318 5.7155912239252515
H 10.508087476710365 16.14436669899205 6.930055477326558
O -14.815074764705164 -9.058100190524659 4.47270896339766
H -15.596737369976978 -8.921053962711715 5.028756856894185
H -14.466633823661219 -8.164553222744646 4.334416985049125
O 2.720819442896666 18.658247203329264 -0.8997579351816487
H 3.6307888007672555 18.646106899729865 -1.2325878281676923
H 2.4190591363434373 19.561979809879254 -1.0763083176430275
O -7.416760335515714 3.8741134195718616 -4.662255836801737
H -7.9844252465649515 4.250302782310793 -3.972904352415478
H -7.3407171298427825 2.9393523949943483 -4.418532218533457
O 10.06807833616135 4.5940095652081645 -16.172927983155642
H 9.822151600665032 5.4360032080072935 -15.761182791132741
H 10.881367888969375 4.799412894599827 -16.658037785023367
O 18.465515443525923 3.6343081524330154 10.144828985319352
H 18.10271758659328 3.41324396999266 9.273923881908503
H 17.693098316897576 3.922995053220029 10.653743123563903
O -12.151287759279615 -5.260319344203424 20.89160559502688
H -11.599708679735846 -4.465003252131753 20.84469941631345
H -12.68606235637115 -5.127596950467108 21.68870210160967
O -11.805716841420333 -12.848757554389904 5.907347175511516
H -11.792055291314217 -12.776972844106822 4.941103068508387
H -11.423211015701385 -12.011358309244029 6.209694230764562
O 10.649282306108399 -2.286251115309205 -8.185677350461912
H 10.675359622690507 -2.273099322454283 -7.217114311313411
H 11.035885575236206 -3.1437145142013168 -8.418607331701084
O 14.467129799487779 8.817473151920664 -14.741352744233101
H 14.67461476034827 8.191686299584317 -14.03120616544835
H 15.269121500069586 8.828779670407448 -15.285083761499553
O 11.866981305241868 -2.4938375600804346 9.244616834043645
H 12.033142599680986 -2.562660753520099 8.29245027866844
H 11.000361010465298 -2.063945258953748 9.300507964049865
O 14.04083138827625 -2.4154331484747216 -11.061318853609801
H 13.259868513189287 -2.9575509462113 -11.248862549886562
H 13.674756745425329 -1.5451418416240257 -10.843272204055912