194

C -5.0710522388059704 1.0783507462686561 0.47044029850746183
C -3.8153522388059704 0.1782507462686569 0.19534029850746193
C -4.11845223880597 -1.3219492537313435 0.5608402985074619
C -2.96945223880597 -2.3874492537313436 0.7034402985074619
C -2.52015223880597 0.7359507462686565 0.7384402985074618
C -2.20305223880597 0.7852507462686571 2.097440298507462
C -1.5755522388059702 1.205650746268656 -0.18965970149253808
C -0.9533522388059701 1.2695507462686564 2.508640298507462
H -2.91125223880597 0.4298507462686567 2.840840298507462
C -0.32655223880597006 1.6562507462686575 0.21554029850746192
H -1.7850522388059702 1.178550746268657 -1.2573597014925382
C 0.004447761194029898 1.6956507462686563 1.569740298507462
H -0.7158522388059702 1.2676507462686573 3.5705402985074617
H 0.3943477611940298 1.9193507462686572 -0.5551597014925382
C -1.76045223880597 -2.1592492537313435 -0.1734597014925381
C -0.5287522388059701 -1.936549253731343 0.464840298507462
C -1.8068522388059702 -2.121249253731343 -1.5681597014925381
C 0.6114477611940299 -1.614449253731343 -0.2582597014925381
H -0.4544522388059702 -1.954049253731343 1.5506402985074619
C -0.6479522388059701 -1.8270492537313432 -2.2998597014925384
H -2.74345223880597 -2.290549253731343 -2.092259701492538
C 0.5698477611940298 -1.5506492537313434 -1.6506597014925382
H 1.5072477611940298 -1.351949253731343 0.2991402985074618
H -0.7173522388059701 -1.7640492537313435 -3.3840597014925375
C 1.7791477611940298 -1.082849253731343 -2.4255597014925376
H 1.4739477611940297 -0.9102492537313429 -3.464259701492538
H 2.1252477611940295 -0.1337492537313434 -2.0010597014925384
C 1.3965477611940298 2.0964507462686566 1.997440298507462
H 1.51704776119403 1.8448507462686567 3.057640298507462
H 2.1256477611940294 1.5207507462686571 1.4165402985074618
C 3.94864776119403 -1.4275492537313434 -3.522959701492538
H 4.81734776119403 -2.087049253731343 -3.615159701492538
H 3.4305477611940303 -1.3641492537313429 -4.484459701492538
H 4.26984776119403 -0.441449253731343 -3.176459701492538
C 2.60904776119403 -3.4296492537313434 -2.8992597014925376
H 1.9825477611940296 -3.869549253731343 -2.119359701492538
H 2.06294776119403 -3.373349253731343 -3.845759701492538
H 3.5215477611940305 -4.019849253731343 -3.0234597014925377
C 3.7281477611940304 -2.060049253731343 -1.156659701492538
H 3.9048477611940298 -1.032549253731343 -0.8295597014925382
H 3.12924776119403 -2.623249253731343 -0.4404597014925382
H 4.68244776119403 -2.5769492537313434 -1.3005597014925383
C 3.1110477611940297 3.755250746268656 2.588740298507462
H 3.40124776119403 4.809350746268656 2.534540298507462
H 2.9823477611940303 3.461750746268656 3.634840298507462
H 3.86514776119403 3.1392507462686563 2.091540298507462
C 1.99744776119403 3.9574507462686572 0.40494029850746194
H 2.67914776119403 3.230350746268657 -0.04295970149253803
H 1.03214776119403 3.981150746268657 -0.10175970149253821
H 2.4399477611940297 4.958250746268657 0.368240298507462
C 0.7418477611940297 4.4992507462686575 2.475440298507462
H -0.18475223880597014 4.424250746268656 1.901240298507462
H 0.57844776119403 4.189650746268656 3.511940298507462
H 1.1210477611940297 5.524350746268658 2.4432402985074617
N 3.00114776119403 -2.025349253731343 -2.490159701492538
N 1.7831477611940298 3.586450746268657 1.862540298507462
C -3.55075223880597 -3.8435492537313434 0.6444402985074619
H -2.62515223880597 -2.2736492537313433 1.7424402985074618
H -4.67195223880597 -1.3478492537313436 1.5102402985074619
H -4.83415223880597 -1.6757492537313432 -0.1945597014925382
H -3.7169522388059697 0.17335074626865676 -0.900559701492538
H -3.9132522388059705 -4.043149253731343 -0.34225970149253815
H -4.35435223880597 -3.9354492537313432 1.3449402985074619
H -2.78115223880597 -4.545049253731343 0.8904402985074619
H -5.24235223880597 1.138950746268657 1.5249402985074618
H -5.92805223880597 0.6501507462686567 -0.006059701492538094
H -4.89895223880597 2.059650746268657 0.08004029850746197
C -2.040616269056836 1.806419711734658 -3.7698581200355905
O -1.0808727012253705 1.1069700705770926 -3.4844847118653806
O -3.2093227846884504 1.4121400908453674 -3.8552988888266566
O -1.9916727282449629 3.016786694716881 -4.017375151205785
O 1.4622430564812503 -5.604068091667889 4.893743374728591
H 1.5104462776142076 -4.814046521237965 4.334717682449743
H 0.5215676087153125 -5.67763437687635 5.114378022848459
O 0.6596192866369492 -5.630094717078952 2.4162479225845215
H 0.3085525578511652 -6.522235908791843 2.275522648064438
H -0.012948347862525855 -5.050077610698563 2.028698083686477
O -1.915924064634086 -5.380963236814266 6.6623074910964935
H -2.057025257218436 -4.455863919236963 6.913801154971513
H -2.811754616496959 -5.729510230521546 6.539977773420545
O -3.144832113683236 -2.4697449176291286 9.105865646305654
H -2.919821188296124 -3.0675549361250294 9.834536094548458
H -3.365071117735385 -3.0653711609629037 8.37395984386506
O 6.762637749351186 3.4947576942191665 -1.7878191965979195
H 7.055205837228572 3.103306659331921 -0.951077086900149
H 7.272261979200578 4.316363574745338 -1.852694968155791
O 4.677790030500455 -8.218955831188653 0.08577271612641546
H 4.520156724465501 -8.785250749736734 0.8561162518006706
H 4.792973142801401 -8.844701737645245 -0.6450739541769299
O 8.384301354209033 6.375536172575025 2.2295830994396866
H 8.13257263740243 6.079521190571397 3.1172627378590287
H 8.095574129940392 7.300064786956066 2.200507758396165
O 8.420944900394698 4.965959872198246 -3.501010475402456
H 7.973223056385146 4.9743432223243715 -4.360337087778304
H 9.174109665878014 5.563170974216154 -3.623663155605602
O -1.142080905703637 -1.772602477790032 -10.689346244924005
H -1.6628208352758884 -2.3809105180496872 -10.143673622553644
H -1.6953735934455079 -0.9793102046049809 -10.748646458214262
O -6.511763106473559 -1.133928130353031 8.894336009900252
H -5.921604263382961 -0.6894331076937497 9.52131613052059
H -5.936906890496332 -1.350257205362999 8.144866860063065
O 2.986594604940885 -9.085068271954944 -2.853895345482508
H 3.006114590660628 -9.04584324174633 -3.821907599569529
H 3.616766462648685 -8.402135483139073 -2.5792170245081825
O -1.482238432812908 -7.916344244927496 -5.76736229490918
H -1.3057012181938128 -7.789895587197476 -4.823003938291943
H -1.1999148229144843 -8.827404205612915 -5.938315714383046
O -0.5849471566530329 5.868246371847303 -7.001804493119538
H -0.46445527687303256 5.946236260605547 -6.043490013912132
H -0.97480906174009 4.988760079165413 -7.117879900706812
O 4.691088316598711 0.9333087029983198 -0.15755450090821077
H 4.868824506658421 0.876322039628564 -1.1084118634190356
H 5.509560659257299 0.6162288954808395 0.2529639082620003
O -2.1585235857036427 -9.040066609918213 5.048363078085876
H -1.736277079756035 -9.23968214864224 5.897379498312807
H -1.9197293832022906 -8.116225041946269 4.879673924792362
O 4.908432751707824 -3.420776845590822 4.484616502884364
H 5.0026499855143 -3.1301708717407966 5.404202625940021
H 4.094025586637785 -3.9458439164996415 4.487352344585358
O 1.6406956084862823 -1.0353395507330114 8.317932921402983
H 1.2703032011344022 -0.8203542469479865 7.4487044470462465
H 2.1322762925720653 -1.856506035433029 8.166288667508654
O -9.695644359662289 0.34912748685929396 -1.22107408955365
H -9.642353531878864 1.2021404568427476 -0.7644601195372189
H -10.51747738881543 0.407603802378274 -1.7311063797238888
O 7.303664485739626 -4.532691644860208 -6.926672819543638
H 6.374267821903477 -4.258840199980084 -6.9127234723436315
H 7.7936356942991765 -3.7034125935759405 -6.820906973526321
O -7.52651053757121 2.44607177136625 1.5183686971436854
H -7.8478466391114825 2.433315540746178 0.6042856892460063
H -8.220129947134664 1.98835082163771 2.01671154213742
C 10.773481749726002 -2.0998006840999217 7.247270387902903
O 10.687895728268584 -2.6098359229804178 6.167753206320689
O 10.85906777118342 -1.5897654452194256 8.326787569485116
O 11.45623518563886 7.504360713417173 4.120709947435693
H 11.30815235475561 7.950193854758803 3.273200866552746
H 10.66987331706843 6.9495713663409 4.233872380818411
O -14.717746748865359 -2.5662730059099257 -14.913142022347678
H -13.855978955429237 -2.403945934355482 -15.325420507035872
H -14.567938716293206 -2.3758711590609902 -13.974916764537287
O -14.810641827703892 -5.0977094219290615 11.600713718748286
H -14.529502793480928 -5.313019302780061 12.502694791467725
H -15.778158489733402 -5.130716972343595 11.642950605599811
O 1.207085038694654 9.029667418270876 -13.651793661448107
H 0.6534604709673519 9.5009502829529 -14.292386868066677
H 1.190701209824573 8.110958547357855 -13.959474543137693
O 8.017033083463676 -0.645774476651382 -3.113512595220862
H 8.941547642825805 -0.8168185904684993 -2.879025713805358
H 7.995432153421471 -0.756001094284656 -4.075981003474576
O 4.039704172527959 12.107544301108485 -11.489367810217704
H 3.73749269332763 11.973871513711213 -10.57845224626625
H 3.9648391913381067 11.229365558691683 -11.892057858839074
O -6.640414252113997 -5.692695918230119 19.141511170565018
H -6.987494131938351 -5.353275723493218 18.302883216507986
H -6.769894273868744 -6.650886496529751 19.07773277356253
O 2.6499422674917437 19.242243848782383 -14.57357182686986
H 2.6770239979451986 19.30215383853656 -13.6068015698267
H 2.882631685473699 20.134960053987598 -14.870009604528542
O 12.005575779168495 -10.224535227818016 4.607743598450583
H 11.80543553599924 -9.884814131990815 5.492899413555539
H 11.139183225919384 -10.281714618508175 4.177561770318817
O 12.821289557924343 -12.353028733259725 -5.381986622406661
H 13.156161158775554 -13.231110495111402 -5.145764719639783
H 13.07769490977004 -12.246707159944876 -6.310379838071629
O 0.22343427325199006 14.849416930538796 -14.483230490186756
H 0.3126841006105705 14.82035112937778 -15.447676965850041
H 1.080947619058267 15.182469842925029 -14.1787496802575
O -7.615294278021567 -1.0656944232395167 -8.031460635446038
H -6.927197642971903 -0.6544746986405319 -7.487044695346867
H -8.22479701929689 -1.4528549431306916 -7.385260136749649
O 3.3571123248449526 0.49423083393335343 16.516454549059294
H 2.5044563081392024 0.8315019443356366 16.82981260650077
H 3.930674267578258 0.5478598711908687 17.295628835410444
O -5.045430924647751 -8.251459751440192 -0.45544509908638586
H -4.782691675135778 -7.3324874120876045 -0.29599202394916135
H -5.234924903488724 -8.279266298750516 -1.405329709031033
O -4.1661387851107055 -6.677732303650041 -9.410486901357945
H -4.393168911456461 -6.330792271259606 -8.53466883089105
H -4.765626024431789 -7.4300920018924295 -9.526813504728835
O 18.44835496621183 2.0448197044287397 1.3920115781385123
H 18.155124235432815 2.713672673235103 0.7551294842265213
H 17.654754316922798 1.5133277455810301 1.555340238906446
O -1.8959180201276933 11.529125490858249 8.916167249831927
H -2.2795310229297856 11.023292820648518 9.648247662580184
H -1.790520442723503 12.421705285104654 9.278319988162558
O 7.633696250853801 -9.845721981929097 -7.1197531573014
H 8.401661874798263 -9.26551846547705 -7.007681587149652
H 6.948677486125964 -9.260899762796264 -7.477096421235809
O -9.426264144642008 3.3326814461389915 15.808452701133504
H -8.546331316092292 3.0170657962880836 15.553359902901791
H -9.689717670233144 2.736951838097138 16.525851069026757
O 11.335511799840447 10.80672815865371 4.957302044185273
H 12.291098180067687 10.648333631256213 4.930224368606956
H 11.196861811111951 11.25743193080453 5.8038268428147095