194

C -5.0710522388059704 1.0783507462686561 0.47044029850746183
C -3.8153522388059704 0.1782507462686569 0.19534029850746193
C -4.11845223880597 -1.3219492537313435 0.5608402985074619
C -2.96945223880597 -2.3874492537313436 0.7034402985074619
C -2.52015223880597 0.7359507462686565 0.7384402985074618
C -2.20305223880597 0.7852507462686571 2.097440298507462
C -1.5755522388059702 1.205650746268656 -0.18965970149253808
C -0.9533522388059701 1.2695507462686564 2.508640298507462
H -2.91125223880597 0.4298507462686567 2.840840298507462
C -0.32655223880597006 1.6562507462686575 0.21554029850746192
H -1.7850522388059702 1.178550746268657 -1.2573597014925382
C 0.004447761194029898 1.6956507462686563 1.569740298507462
H -0.7158522388059702 1.2676507462686573 3.5705402985074617
H 0.3943477611940298 1.9193507462686572 -0.5551597014925382
C -1.76045223880597 -2.1592492537313435 -0.1734597014925381
C -0.5287522388059701 -1.936549253731343 0.464840298507462
C -1.8068522388059702 -2.121249253731343 -1.5681597014925381
C 0.6114477611940299 -1.614449253731343 -0.2582597014925381
H -0.4544522388059702 -1.954049253731343 1.5506402985074619
C -0.6479522388059701 -1.8270492537313432 -2.2998597014925384
H -2.74345223880597 -2.290549253731343 -2.092259701492538
C 0.5698477611940298 -1.5506492537313434 -1.6506597014925382
H 1.5072477611940298 -1.351949253731343 0.2991402985074618
H -0.7173522388059701 -1.7640492537313435 -3.3840597014925375
C 1.7791477611940298 -1.082849253731343 -2.4255597014925376
H 1.4739477611940297 -0.9102492537313429 -3.464259701492538
H 2.1252477611940295 -0.1337492537313434 -2.0010597014925384
C 1.3965477611940298 2.0964507462686566 1.997440298507462
H 1.51704776119403 1.8448507462686567 3.057640298507462
H 2.1256477611940294 1.5207507462686571 1.4165402985074618
C 3.94864776119403 -1.4275492537313434 -3.522959701492538
H 4.81734776119403 -2.087049253731343 -3.615159701492538
H 3.4305477611940303 -1.3641492537313429 -4.484459701492538
H 4.26984776119403 -0.441449253731343 -3.176459701492538
C 2.60904776119403 -3.4296492537313434 -2.8992597014925376
H 1.9825477611940296 -3.869549253731343 -2.119359701492538
H 2.06294776119403 -3.373349253731343 -3.845759701492538
H 3.5215477611940305 -4.019849253731343 -3.0234597014925377
C 3.7281477611940304 -2.060049253731343 -1.156659701492538
H 3.9048477611940298 -1.032549253731343 -0.8295597014925382
H 3.12924776119403 -2.623249253731343 -0.4404597014925382
H 4.68244776119403 -2.5769492537313434 -1.3005597014925383
C 3.1110477611940297 3.755250746268656 2.588740298507462
H 3.40124776119403 4.809350746268656 2.534540298507462
H 2.9823477611940303 3.461750746268656 3.634840298507462
H 3.86514776119403 3.1392507462686563 2.091540298507462
C 1.99744776119403 3.9574507462686572 0.40494029850746194
H 2.67914776119403 3.230350746268657 -0.04295970149253803
H 1.03214776119403 3.981150746268657 -0.10175970149253821
H 2.4399477611940297 4.958250746268657 0.368240298507462
C 0.7418477611940297 4.4992507462686575 2.475440298507462
H -0.18475223880597014 4.424250746268656 1.901240298507462
H 0.57844776119403 4.189650746268656 3.511940298507462
H 1.1210477611940297 5.524350746268658 2.4432402985074617
N 3.00114776119403 -2.025349253731343 -2.490159701492538
N 1.7831477611940298 3.586450746268657 1.862540298507462
C -3.55075223880597 -3.8435492537313434 0.6444402985074619
H -2.62515223880597 -2.2736492537313433 1.7424402985074618
H -4.67195223880597 -1.3478492537313436 1.5102402985074619
H -4.83415223880597 -1.6757492537313432 -0.1945597014925382
H -3.7169522388059697 0.17335074626865676 -0.900559701492538
H -3.9132522388059705 -4.043149253731343 -0.34225970149253815
H -4.35435223880597 -3.9354492537313432 1.3449402985074619
H -2.78115223880597 -4.545049253731343 0.8904402985074619
H -5.24235223880597 1.138950746268657 1.5249402985074618
H -5.92805223880597 0.6501507462686567 -0.006059701492538094
H -4.89895223880597 2.059650746268657 0.08004029850746197
C 0.20088635554027312 2.0735856309207406 -3.859267350298244
O -0.7995174886039478 2.4881701977827713 -4.424145464709918
O 0.5234640380472024 2.3385236842615758 -2.6954877617418767
O 1.0455238413889132 1.3249279324429848 -4.363992574959424
O 5.877983799837468 -5.453222617837392 -6.146579618980468
H 5.80030839091895 -6.046892934146473 -6.908478197062104
H 5.741328277457939 -4.57068739386524 -6.522636517536527
O 1.9903343635982642 -2.661962245250084 -5.921642025310277
H 1.2706431576889021 -2.013421809712021 -5.941821928898475
H 2.737558058855535 -2.1950207242190585 -6.324859472208721
O -3.3201308267951446 -6.002114556470412 -1.850469389267228
H -3.4697141013405535 -6.02725445154762 -0.8934112998328504
H -2.6008150822711675 -6.6358409890609895 -1.9916700005121322
O 2.964480360673696 3.8063452432162657 -3.5329199770071176
H 2.06903919264723 3.4371697363216827 -3.503561560623961
H 3.5159596358777176 3.060735782437191 -3.8138097869276315
O -4.391665233410803 7.628464386635253 -0.2560450405682171
H -5.021713435578549 7.41469698345612 0.4484477678998626
H -4.952562834917909 7.8024836231141075 -1.0268064370190864
O -1.3377787435381876 -4.373721114555878 8.601002449060026
H -0.5831046746106965 -4.775292905206618 9.057263891154342
H -1.416103592397519 -3.496637371628548 9.005417174612582
O 0.2933080009362281 -8.709186835680686 -1.9055794991998654
H 0.439716827192675 -7.925392733113302 -2.4562142395448587
H 0.36063639555085203 -9.448577220583154 -2.5282597464314605
O 5.542228350679966 4.606491394291657 -2.6119890428331765
H 5.717854664760193 5.556522757243384 -2.6865756643592986
H 5.708983635396127 4.410272783374041 -1.6778301291312352
O -3.9885271129067257 -5.296457531887734 5.298051896608986
H -4.079401437849928 -5.385668310945953 4.337452786227374
H -3.0473088757118303 -5.459994335782312 5.460304440637359
O 7.526911442990807 2.04038569907713 3.7115857094176565
H 7.314316820346649 1.1777871049104491 4.098489507104439
H 7.69861486897063 2.6055445004686533 4.479749368423008
O -4.947522422125549 -1.7569598368748172 4.306789078205657
H -4.655713666778901 -0.8329613413557821 4.313253401959985
H -5.833239787761308 -1.7199614556753493 3.915511922854274
O 3.375317863438938 -8.852525268357008 -3.343085976134698
H 3.5506430107663567 -9.1127887227906 -4.259869147828482
H 3.430498003252396 -9.684279194437183 -2.8490186700716653
O -1.7144161833544378 2.4594820112711537 7.489632180763649
H -2.336365406663384 3.096518446686788 7.107099697857503
H -2.2460155824164936 1.6588507772525247 7.613542028357242
O 2.4734871721404343 -2.517079862377604 -9.99822192487149
H 2.5521947530167877 -3.3832250289336696 -10.425498210270247
H 1.611120701743168 -2.188059428552598 -10.29323305883115
O 0.5859985581534368 4.281478745380895 -6.587340150572018
H 0.5386516095668075 5.028748164317468 -5.972267765497113
H 1.1314325818405853 4.612730044073686 -7.316542623976205
O -6.545615705183803 -1.0826567674727092 8.21591266063654
H -6.148631936698213 -1.9665757514451299 8.208265816049124
H -6.923383385638413 -1.0034201149667015 9.104718081864148
O 4.172798551877534 1.4612402366222348 -6.938651696569206
H 4.611361093743004 0.599256615232601 -6.878531065929537
H 4.653512328133912 1.919733779950422 -7.644101822619021
O 6.188019728081159 -5.639808830138649 1.6310629522940783
H 6.250523492516146 -4.673034819716853 1.6108478810744526
H 6.309900768160651 -5.901627214295086 0.7060991205218023
O 7.108041462482546 -2.323217197387622 -4.991842669599658
H 6.556139139679557 -1.5910357723985737 -4.678343795780828
H 7.21996066332677 -2.8836686846383888 -4.209327387179696
O -6.9105751217883045 -5.556203033354552 -1.2526096046148387
H -7.345070285527182 -4.690155332218024 -1.2406643568710534
H -7.436201421548578 -6.073118035969397 -1.8814798753162116
C 7.740027032836549 6.825224803621532 17.846800495074426
O 7.54600656155803 6.287695706116193 18.898578410491915
O 7.934047504115069 7.362753901126872 16.79502257965694
O -1.3369133262693702 12.380761226308072 -3.044742851512166
H -1.0990276040447284 11.908055631540886 -3.856486136509007
H -1.4598082404071184 11.67612702117191 -2.3910231705087535
O 5.01368813499428 6.978558174337273 -10.730900330776187
H 4.337501586663974 7.510024099646296 -10.284488996923013
H 5.329250680278202 7.552880339768744 -11.444718427078065
O 9.589030544460776 6.3349218038109445 -7.805137438912276
H 9.118246922890261 5.571601831898941 -8.172115311598365
H 10.397025322165756 6.389524469447857 -8.337232291741001
O 11.43093864876753 17.434938637812948 0.8281995253486727
H 11.659359751340643 17.976566909286678 1.598543586362748
H 10.85985755711903 18.01098154493062 0.29810245855714257
O -12.475299197191413 -8.737756449391828 3.308156634992448
H -12.69243142854076 -8.474573335863603 2.4012081250080914
H -11.58591523592191 -9.115520066816938 3.235680686661568
O -14.184481504395112 -3.5511098084432264 -11.584039093935635
H -15.122388851156114 -3.3217436074480142 -11.665821192421562
H -13.738505153741693 -2.927624035201454 -12.176772195359009
O 7.9182326342207405 -8.157682431409846 1.8477285466052458
H 7.162741401544395 -7.59617864037743 1.6176984466065631
H 8.55992396473666 -7.5411249271645495 2.231200872333602
O 12.397595966971585 1.820404678416927 -3.370516161733306
H 12.215179616717228 1.924858511589659 -4.3164448211973285
H 11.521002785078458 1.702551106301283 -2.974717130281655
O 17.036351018622376 5.18337824104484 -8.720085175263954
H 17.603808103750026 4.615714133048591 -8.177206483536915
H 17.224959498901754 6.078119782188663 -8.399419679742095
O -18.400310485164376 -12.733120779176716 -10.81791357374852
H -19.163355115587127 -13.027322398039122 -10.29812933356636
H -18.563518073005863 -11.788465150134197 -10.959161476703738
O -17.905064251261134 2.233917763249126 -9.40682538028789
H -17.66704562131578 2.5730174949619276 -10.282796761470655
H -17.129757309279892 2.432271003923269 -8.860458212597731
O 11.403261359650372 -8.956780486344234 -5.805821661596141
H 10.921241384094564 -8.189916463441765 -6.1501233758570715
H 11.976914745144207 -9.221781288371231 -6.540436058770952
O 14.344286068911082 -8.222122738595694 -2.52664593114184
H 13.415957030455736 -7.97487468696336 -2.399993042408131
H 14.385029610044814 -8.513519751658489 -3.449895458048821
O -16.005478184923525 7.080962701846569 2.4868507736303833
H -15.15576911335725 7.442687094715174 2.1933932567700745
H -16.051633371253114 7.322721897057187 3.424072270719516
O 1.1930466897568 -15.826216811806006 1.4348214192297146
H 1.1728105123919867 -15.803387421993753 2.4033443528696266
H 0.8819725727421512 -14.946523638547024 1.1734122400773817
O 13.06090580487804 13.304721569281513 -8.042137879318918
H 12.931029528806036 13.353291863671885 -9.001168867512991
H 12.51951145851707 12.548321642009457 -7.77063602656059
O -7.341438344973026 17.622374312740135 -11.750999592599808
H -7.650820663635898 17.653997623862153 -12.66874133404588
H -6.481202484552826 18.06756934719106 -11.778523946313449
O -0.8672277286453736 5.2607850195568755 11.988303265877633
H -1.1712854111686364 5.5055692211504015 11.101400240035009
H 0.08905584274285294 5.414409490667572 11.958584630832641
O -2.5007138182589794 -16.195801376870936 -9.981068395221618
H -2.869143837547882 -15.858961923540026 -9.150546956325236
H -1.7157704155642413 -16.69218996599205 -9.704619182062386
O -7.5737362186290955 1.198703677526007 -8.65639189659425
H -7.967497881791392 2.028582350736838 -8.34781370994864
H -6.628671259274254 1.3046723127523954 -8.47042196556267