194

C -5.0710522388059704 1.0783507462686561 0.47044029850746183
C -3.8153522388059704 0.1782507462686569 0.19534029850746193
C -4.11845223880597 -1.3219492537313435 0.5608402985074619
C -2.96945223880597 -2.3874492537313436 0.7034402985074619
C -2.52015223880597 0.7359507462686565 0.7384402985074618
C -2.20305223880597 0.7852507462686571 2.097440298507462
C -1.5755522388059702 1.205650746268656 -0.18965970149253808
C -0.9533522388059701 1.2695507462686564 2.508640298507462
H -2.91125223880597 0.4298507462686567 2.840840298507462
C -0.32655223880597006 1.6562507462686575 0.21554029850746192
H -1.7850522388059702 1.178550746268657 -1.2573597014925382
C 0.004447761194029898 1.6956507462686563 1.569740298507462
H -0.7158522388059702 1.2676507462686573 3.5705402985074617
H 0.3943477611940298 1.9193507462686572 -0.5551597014925382
C -1.76045223880597 -2.1592492537313435 -0.1734597014925381
C -0.5287522388059701 -1.936549253731343 0.464840298507462
C -1.8068522388059702 -2.121249253731343 -1.5681597014925381
C 0.6114477611940299 -1.614449253731343 -0.2582597014925381
H -0.4544522388059702 -1.954049253731343 1.5506402985074619
C -0.6479522388059701 -1.8270492537313432 -2.2998597014925384
H -2.74345223880597 -2.290549253731343 -2.092259701492538
C 0.5698477611940298 -1.5506492537313434 -1.6506597014925382
H 1.5072477611940298 -1.351949253731343 0.2991402985074618
H -0.7173522388059701 -1.7640492537313435 -3.3840597014925375
C 1.7791477611940298 -1.082849253731343 -2.4255597014925376
H 1.4739477611940297 -0.9102492537313429 -3.464259701492538
H 2.1252477611940295 -0.1337492537313434 -2.0010597014925384
C 1.3965477611940298 2.0964507462686566 1.997440298507462
H 1.51704776119403 1.8448507462686567 3.057640298507462
H 2.1256477611940294 1.5207507462686571 1.4165402985074618
C 3.94864776119403 -1.4275492537313434 -3.522959701492538
H 4.81734776119403 -2.087049253731343 -3.615159701492538
H 3.4305477611940303 -1.3641492537313429 -4.484459701492538
H 4.26984776119403 -0.441449253731343 -3.176459701492538
C 2.60904776119403 -3.4296492537313434 -2.8992597014925376
H 1.9825477611940296 -3.869549253731343 -2.119359701492538
H 2.06294776119403 -3.373349253731343 -3.845759701492538
H 3.5215477611940305 -4.019849253731343 -3.0234597014925377
C 3.7281477611940304 -2.060049253731343 -1.156659701492538
H 3.9048477611940298 -1.032549253731343 -0.8295597014925382
H 3.12924776119403 -2.623249253731343 -0.4404597014925382
H 4.68244776119403 -2.5769492537313434 -1.3005597014925383
C 3.1110477611940297 3.755250746268656 2.588740298507462
H 3.40124776119403 4.809350746268656 2.534540298507462
H 2.9823477611940303 3.461750746268656 3.634840298507462
H 3.86514776119403 3.1392507462686563 2.091540298507462
C 1.99744776119403 3.9574507462686572 0.40494029850746194
H 2.67914776119403 3.230350746268657 -0.04295970149253803
H 1.03214776119403 3.981150746268657 -0.10175970149253821
H 2.4399477611940297 4.958250746268657 0.368240298507462
C 0.7418477611940297 4.4992507462686575 2.475440298507462
H -0.18475223880597014 4.424250746268656 1.901240298507462
H 0.57844776119403 4.189650746268656 3.511940298507462
H 1.1210477611940297 5.524350746268658 2.4432402985074617
N 3.00114776119403 -2.025349253731343 -2.490159701492538
N 1.7831477611940298 3.586450746268657 1.862540298507462
C -3.55075223880597 -3.8435492537313434 0.6444402985074619
H -2.62515223880597 -2.2736492537313433 1.7424402985074618
H -4.67195223880597 -1.3478492537313436 1.5102402985074619
H -4.83415223880597 -1.6757492537313432 -0.1945597014925382
H -3.7169522388059697 0.17335074626865676 -0.900559701492538
H -3.9132522388059705 -4.043149253731343 -0.34225970149253815
H -4.35435223880597 -3.9354492537313432 1.3449402985074619
H -2.78115223880597 -4.545049253731343 0.8904402985074619
H -5.24235223880597 1.138950746268657 1.5249402985074618
H -5.92805223880597 0.6501507462686567 -0.006059701492538094
H -4.89895223880597 2.059650746268657 0.08004029850746197
C 1.1940603567505685 -1.1423055169654504 4.038830913522903
O 2.1455682649483663 -1.828181337186843 3.698268792210678
O 1.1975313466021205 -0.33258507539286075 4.973160739028298
O 0.0804188824615123 -1.1517927317341445 3.5018383214890556
O -3.020647396882664 -3.3563763112596847 -6.805683814104595
H -2.615679485778429 -2.682720907116611 -7.372390743958737
H -2.8747052782100946 -3.024749164561678 -5.906970134521215
O 6.730621805824445 2.339917701168763 1.5156165110922204
H 7.551265898049584 2.3937911282708226 1.0031633086939353
H 6.971533079278586 2.7010002575863155 2.381955411334884
O 0.7600313193428816 0.2698839779021691 -6.590116325382079
H 1.2672928269984056 -0.0018498984175736588 -7.369740478555448
H 0.9243733371513421 -0.43552010298347654 -5.946409304950796
O 0.05890350560157567 -7.84296933989535 -5.7985435349865035
H -0.9084510046884089 -7.899027485235413 -5.791465917968201
H 0.2739723091336259 -7.402845608753739 -4.962482260118878
O 1.4621679842429982 -6.715534321277997 2.3325354693058404
H 0.8645786711251144 -5.954018578790361 2.3766732500701857
H 1.4015064350271462 -7.112093000794676 3.214591779552936
O -5.208980487567109 0.8791106055462015 6.5873265927844935
H -5.2233650216642005 1.0284536568486775 7.544644249106823
H -5.011685576853338 1.7525961714002736 6.217110941101538
O 9.095767922066447 0.49016065264558595 -4.050868210538271
H 9.072475995452582 -0.24442051112811614 -3.4193499155669462
H 9.38204421351615 1.2475155013995107 -3.5184947867812975
O 0.6051076096083081 9.241303751809292 0.8545610359910158
H 0.5538158629559193 9.165693445815862 -0.11012523179397118
H 1.0689057662933186 8.43569649205379 1.1281486036632609
O -9.611589102515836 3.4270381138330803 4.76865699200295
H -9.214817724683673 3.5794765066780814 5.63946257709069
H -10.080433911506583 2.5849981213408277 4.869231046440862
O -1.825794212991688 8.950161752735251 0.882831566603848
H -2.291708874869025 9.457633701605966 0.20138963521344028
H -2.4149208006744285 8.993779974706802 1.6509391493663992
O -5.072618482980751 -7.418829164998427 -4.837608951055806
H -5.031165069151488 -7.54629725469111 -3.877921055179235
H -4.588662281258216 -8.178120500020839 -5.195694147167263
O -7.38132611258712 1.733785988028179 -4.820217400076591
H -7.537988654393766 1.8261409526623895 -5.772002441670592
H -8.263283418390866 1.8206106894193894 -4.4283312861764905
O 4.268304706529207 -9.507407011750054 -1.1578996769111725
H 4.584607369070505 -8.591600974311092 -1.172707930003131
H 3.3870623128467443 -9.444260784685 -0.759921861091936
O -2.1721691936064835 -9.507492485426873 -5.482994843198647
H -2.2486155494140214 -9.56666296944119 -6.447164001285163
H -2.073265884346018 -10.428670237403221 -5.199072971936273
O -7.3934789062878865 -0.958173329295417 4.694520034034093
H -7.47709458045092 -1.3009673503101542 3.7920412059772732
H -7.273026781963585 -0.004472588829937507 4.572421190135559
O -4.26180736655758 7.674772546175403 -3.541110346318744
H -4.352201081422957 6.772822521037227 -3.1986450409722273
H -5.176154783836093 7.972150973943802 -3.6615130685226362
O 6.20743901714748 0.48905964206877556 -0.8739563289275173
H 6.029192848833028 -0.2525733783303782 -0.2763141923316732
H 6.777810795027075 0.10679470674688774 -1.5577044539866076
O 5.215986581145389 2.8550662003876104 -3.5055801887885276
H 5.317068921256128 2.850888320463787 -2.5418726279916433
H 6.122070138023123 2.9504339837628306 -3.835549154222992
O -3.362349259631708 1.1649085357122606 -3.766435146083973
H -2.6426911841007525 0.5916545993768656 -4.070473853651047
H -3.9610782345630065 1.2122203133126543 -4.526860786484142
O 4.74793895522593 -3.690900490361087 1.364995994259631
H 4.760166562463777 -4.128335798345026 0.5004335651371095
H 3.8274603640823806 -3.4071842034822377 1.4707607147767434
C -3.8318058950290466 -2.2850324407550477 9.385941099725573
O -4.945045502683437 -1.961924281834471 9.684465723313735
O -2.7185662873746557 -2.6081405996756244 9.08741647613741
O -6.5406761741170385 -2.2686235485621835 15.219106868129874
H -6.888910336331018 -1.6023034551429305 14.607782193122487
H -7.325472049764583 -2.7648117145445577 15.496333637770995
O -5.686512356433759 -6.397435268771702 -12.736476907632131
H -6.207450973937222 -7.02773177488924 -13.256396736134183
H -4.980665513378322 -6.122516325461708 -13.340763059267257
O 12.740720961820015 5.253332893953617 -3.1927398414198116
H 12.75792297072946 4.290916703618887 -3.3042141629968684
H 13.516332916777262 5.5599939689192155 -3.686042005137285
O 10.710600110237607 -4.756232587326261 -7.8445047647261745
H 10.790405688965736 -4.665230677367492 -6.883090660977052
H 10.218001893414797 -5.582467769754774 -7.961313858551563
O -7.740284747569745 3.6419762529178072 -10.723096838897165
H -8.066723835279937 4.526714271410157 -10.500288586022256
H -6.7771896880865485 3.7465091423724974 -10.745067858930616
O -10.496152595304649 8.694252277322548 -2.8280516587093856
H -10.177842863722951 8.284183713904417 -3.646275371991136
H -9.691842127262044 8.82580281211608 -2.303894170837068
O -1.8654120716391234 4.5450289861943665 -3.2974435756022413
H -1.793421267439024 4.239556701472217 -4.214215828823975
H -1.1099992889602892 4.1317449346187844 -2.853022868637892
O -13.747288062095032 0.9147601030531348 1.7512842073612118
H -14.613935954980157 0.7922118644859706 1.3355069642587791
H -13.150119763496004 0.3759982312862433 1.2108329024515267
O -1.530768316160126 6.172586337602133 -8.986805388108289
H -1.6382865885105944 6.528086861290939 -9.881806257196
H -0.6066388518621648 5.8823954078098275 -8.959677878406138
O 12.294282802389946 9.726771378330497 3.4367834397675616
H 12.613487857264913 10.250542076069786 4.186943253428604
H 12.946453039036802 9.014886720960261 3.3539814993745756
O 2.5954578874459173 2.1807907884386517 -14.843361750005746
H 3.4280666696583038 1.9310338211234008 -14.415166198930894
H 1.9147902832408028 1.8988919180304473 -14.213928208042619
O -6.825783939291936 -5.61517005339203 -0.9047672088653811
H -5.977944048267533 -5.45947312432661 -1.3473656073795728
H -6.6238260758609595 -5.498153109160256 0.03570182329944949
O -9.974387708804315 -13.306160703831818 -4.341383263611554
H -9.779540579095881 -12.85086595766553 -3.50849152571415
H -9.622759070157956 -14.199173868031412 -4.207791597142666
O 1.356724358217713 2.562838865954954 15.793129965682777
H 1.793395448715605 3.4268927944411183 15.751941080155111
H 1.93885762588915 2.0330993596136797 16.358336882122657
O -18.20560640517455 -5.99243218089388 3.0941962005070733
H -18.88692739009231 -5.571773475796746 3.639920788771797
H -18.453638109141593 -5.757084777875421 2.1875243646040983
O -10.584927507465618 -1.1404876398405746 -7.3184098287615065
H -10.491191674525755 -0.6496822044907469 -6.488174334968247
H -11.447875462804944 -1.5738598848334622 -7.237965637265179
O -5.519187147959623 9.289205397947288 3.3789329356847837
H -5.777925725144365 8.441213826491435 3.769998148042326
H -4.754834827707434 9.56652165357437 3.906022272695191
O -9.481539334572117 -10.670498349652542 -7.775497088096802
H -9.002509849682099 -10.392960934631395 -8.57077760009831
H -10.139794770256492 -9.971853965484453 -7.642991427227658
O 2.2966867971274265 3.16214885487613 -19.88372154616645
H 1.79088667178935 3.9822944243655405 -19.98616584788635
H 3.1401442353859457 3.453011258241842 -19.505646743442576
O 5.4290871713459365 -0.9007977139870318 13.02884827786838
H 5.1626156696519665 -1.18667564482401 12.142149848668616
H 6.397298630451981 -0.9302777136764023 13.003168628843198