194

C -5.0710522388059704 1.0783507462686561 0.47044029850746183
C -3.8153522388059704 0.1782507462686569 0.19534029850746193
C -4.11845223880597 -1.3219492537313435 0.5608402985074619
C -2.96945223880597 -2.3874492537313436 0.7034402985074619
C -2.52015223880597 0.7359507462686565 0.7384402985074618
C -2.20305223880597 0.7852507462686571 2.097440298507462
C -1.5755522388059702 1.205650746268656 -0.18965970149253808
C -0.9533522388059701 1.2695507462686564 2.508640298507462
H -2.91125223880597 0.4298507462686567 2.840840298507462
C -0.32655223880597006 1.6562507462686575 0.21554029850746192
H -1.7850522388059702 1.178550746268657 -1.2573597014925382
C 0.004447761194029898 1.6956507462686563 1.569740298507462
H -0.7158522388059702 1.2676507462686573 3.5705402985074617
H 0.3943477611940298 1.9193507462686572 -0.5551597014925382
C -1.76045223880597 -2.1592492537313435 -0.1734597014925381
C -0.5287522388059701 -1.936549253731343 0.464840298507462
C -1.8068522388059702 -2.121249253731343 -1.5681597014925381
C 0.6114477611940299 -1.614449253731343 -0.2582597014925381
H -0.4544522388059702 -1.954049253731343 1.5506402985074619
C -0.6479522388059701 -1.8270492537313432 -2.2998597014925384
H -2.74345223880597 -2.290549253731343 -2.092259701492538
C 0.5698477611940298 -1.5506492537313434 -1.6506597014925382
H 1.5072477611940298 -1.351949253731343 0.2991402985074618
H -0.7173522388059701 -1.7640492537313435 -3.3840597014925375
C 1.7791477611940298 -1.082849253731343 -2.4255597014925376
H 1.4739477611940297 -0.9102492537313429 -3.464259701492538
H 2.1252477611940295 -0.1337492537313434 -2.0010597014925384
C 1.3965477611940298 2.0964507462686566 1.997440298507462
H 1.51704776119403 1.8448507462686567 3.057640298507462
H 2.1256477611940294 1.5207507462686571 1.4165402985074618
C 3.94864776119403 -1.4275492537313434 -3.522959701492538
H 4.81734776119403 -2.087049253731343 -3.615159701492538
H 3.4305477611940303 -1.3641492537313429 -4.484459701492538
H 4.26984776119403 -0.441449253731343 -3.176459701492538
C 2.60904776119403 -3.4296492537313434 -2.8992597014925376
H 1.9825477611940296 -3.869549253731343 -2.119359701492538
H 2.06294776119403 -3.373349253731343 -3.845759701492538
H 3.5215477611940305 -4.019849253731343 -3.0234597014925377
C 3.7281477611940304 -2.060049253731343 -1.156659701492538
H 3.9048477611940298 -1.032549253731343 -0.8295597014925382
H 3.12924776119403 -2.623249253731343 -0.4404597014925382
H 4.68244776119403 -2.5769492537313434 -1.3005597014925383
C 3.1110477611940297 3.755250746268656 2.588740298507462
H 3.40124776119403 4.809350746268656 2.534540298507462
H 2.9823477611940303 3.461750746268656 3.634840298507462
H 3.86514776119403 3.1392507462686563 2.091540298507462
C 1.99744776119403 3.9574507462686572 0.40494029850746194
H 2.67914776119403 3.230350746268657 -0.04295970149253803
H 1.03214776119403 3.981150746268657 -0.10175970149253821
H 2.4399477611940297 4.958250746268657 0.368240298507462
C 0.7418477611940297 4.4992507462686575 2.475440298507462
H -0.18475223880597014 4.424250746268656 1.901240298507462
H 0.57844776119403 4.189650746268656 3.511940298507462
H 1.1210477611940297 5.524350746268658 2.4432402985074617
N 3.00114776119403 -2.025349253731343 -2.490159701492538
N 1.7831477611940298 3.586450746268657 1.862540298507462
C -3.55075223880597 -3.8435492537313434 0.6444402985074619
H -2.62515223880597 -2.2736492537313433 1.7424402985074618
H -4.67195223880597 -1.3478492537313436 1.5102402985074619
H -4.83415223880597 -1.6757492537313432 -0.1945597014925382
H -3.7169522388059697 0.17335074626865676 -0.900559701492538
H -3.9132522388059705 -4.043149253731343 -0.34225970149253815
H -4.35435223880597 -3.9354492537313432 1.3449402985074619
H -2.78115223880597 -4.545049253731343 0.8904402985074619
H -5.24235223880597 1.138950746268657 1.5249402985074618
H -5.92805223880597 0.6501507462686567 -0.006059701492538094
H -4.89895223880597 2.059650746268657 0.08004029850746197
C 1.0281315053374689 1.939127970416738 -3.46379351286436
O 1.861899136018057 1.9631817524463837 -2.571589246903169
O 1.2800596204061139 1.9168944643768042 -4.67402876278362
O -0.1965972880754301 1.9332970741539317 -3.2945192749125756
O 8.135902311279565 -2.2795818254502 -6.692554950518081
H 8.102583381635393 -2.2596986849250618 -7.660781094840896
H 7.244720617356024 -2.0119334627326264 -6.422145101122448
O -1.96187113725047 7.151269288776664 3.967681188914715
H -2.698878387287792 7.366730297171597 4.55875159432668
H -2.304289333876337 6.428616063216415 3.420429840349127
O 2.4570983082542215 1.1251812333739233 -6.873785462097904
H 3.187407011151044 0.4916955763725018 -6.939454920346313
H 2.687694868083539 1.6694506707364023 -6.105958690978262
O 4.8629122303096235 -6.759549089506043 -2.945795687106326
H 4.85983001458279 -6.6799728931517395 -3.911521054806686
H 4.33607248590737 -6.003185835440953 -2.6469370986096328
O -2.403659662678719 -1.1402504106230942 8.541215021513597
H -2.820752084619602 -0.2754786948587298 8.672253748893894
H -2.7692303341098974 -1.6867040258472192 9.253049605456974
O -2.109729883264959 3.0974306609482105 1.3863914563551418
H -1.6307849151098448 3.1471204396659003 0.5454931270252014
H -2.839529699626511 3.725529918475023 1.2775544450358682
O 1.6947633903640578 -5.693693266912014 2.710882792802676
H 2.2461200209973806 -4.957006657398156 2.4071295012655356
H 1.6793934733907347 -6.301248055288108 1.9561623882332002
O 1.1206478377385203 6.578676042844232 -5.028446555719151
H 1.909678049673185 6.059961772065261 -5.24601076887145
H 1.132015644662787 6.627321393975073 -4.060734642452043
O 1.3276910294447222 7.288824134992029 0.07026670240938193
H 0.4399909187990281 6.918331618102929 -0.04674255102300218
H 1.192016268342927 8.035958467204184 0.6722173591328928
O -4.258448344955086 4.086241540957125 -5.5038034647823375
H -3.5009981916747193 4.505965978137118 -5.068983940117809
H -4.08542532839958 4.212635874015786 -6.448816402584084
O -1.146209299538825 -4.2176594962208895 -7.365579232635606
H -2.063206441924918 -3.9276935406267555 -7.247243513800918
H -1.1883987702816883 -5.179177919898995 -7.253043399293485
O -6.676561234809377 0.9507859702713106 4.119180452454959
H -6.379264630046023 0.8238554092892914 3.205686764252916
H -7.366213398628442 1.627844010935275 4.048936258303745
O 6.016081475252578 4.993477468499473 -0.3917796209034963
H 6.972546775740778 5.108763558125459 -0.4959458505595995
H 5.894680203909655 4.032112950900645 -0.39317243039924754
O 9.575674369875022 -3.164044020421846 -0.613365537230818
H 9.941244184374447 -3.7912866500145768 -1.25515424954076
H 10.252937954085652 -2.4740631881324906 -0.5485393629224631
O -4.612846777836628 -5.374046626174738 10.879394849004544
H -5.385135116094504 -4.9158243596087186 11.243497079036153
H -4.257235640802325 -4.751605433573371 10.227421210526611
O -3.4735243489705963 -3.213753753604596 -5.337380776961537
H -3.752408926029255 -2.567277365415505 -6.003157788499787
H -3.608491399580787 -2.754908919128863 -4.494642823962788
O -4.396053172930447 6.6406066388332246 2.696930005091597
H -4.390179619165119 6.675160469760652 3.6652991965854227
H -3.8499271678774605 7.39609187990591 2.432448660898455
O -0.12806113719353895 -10.259994848551699 4.098172462957656
H 0.4296607596956177 -9.67151331734752 3.5675095472927816
H -0.694652243551654 -9.655394128969 4.6005611893199925
O -6.192158057278265 1.214176332073914 7.013215566221616
H -6.303763366649842 1.85981821815223 6.299312094622472
H -5.563911704228172 0.5713063186456573 6.651294842838704
O 4.625747272377714 -0.2647505624287687 2.1551830846654836
H 5.180743606644936 -0.9596382032732047 1.7703745706593588
H 5.0248184742755555 -0.10003155566228017 3.022692029245119
C -4.352939602253427 2.576212609409298 -15.792879579426112
O -4.243786193218918 2.2655879040455025 -16.943712357467213
O -4.462093011287935 2.8868373147730955 -14.64204680138501
O 8.631033585777107 6.886936169666249 -2.1605448971902357
H 9.528349413069765 7.117474984242099 -1.8765668734559084
H 8.7036250014223 6.806753732575037 -3.12348996699263
O 16.284747000089855 -2.2256922480401347 0.8304500647578237
H 15.81069932803172 -2.9483946574362427 1.2685680727982653
H 15.61724659964236 -1.8228805083786233 0.25499558168092296
O 19.274893137919562 6.178675107448032 -3.4807795949127867
H 19.021964171074288 5.348460237958178 -3.049806782419317
H 19.766290990435557 6.657399034080391 -2.7964452490610228
O -18.43062012314097 -2.3386616249450976 -10.29235097036264
H -17.81025319934535 -1.6081740967491376 -10.149172033676681
H -19.160432080794635 -2.1486099723041434 -9.683896518415612
O -9.556015410219885 3.100435564260474 -13.803608233893772
H -9.317184723831506 2.408894334421543 -14.438980555900416
H -8.758221134841058 3.6469105235672115 -13.74154892900345
O -3.6575737491670837 -0.6184232464560777 12.45703141901356
H -3.4897372737202255 0.038516353209244514 11.76476800325252
H -3.231477686283538 -0.2444352044870186 13.242866665079358
O -9.82639027727997 -4.9825974982599455 -16.059574541029697
H -9.540825248639711 -5.335469740939389 -16.915671002688118
H -8.99974298156836 -4.722021843309758 -15.6263118945438
O 4.05284947697086 4.645982467462693 -12.444359211266127
H 4.227588977002427 4.765704280646364 -11.498790519167699
H 4.801697879031509 5.0822010473568335 -12.877835122461144
O -19.405505125877113 -9.911092264296824 0.1410168599749575
H -20.063596468319826 -9.830364300939166 -0.565641570834492
H -18.592990660589166 -10.162287376495573 -0.32340019785700846
O 4.547639276673477 4.037093594953615 10.7914844730225
H 4.5019883934065295 4.021001881720381 11.759278051489606
H 3.650857884014905 3.8004166678690385 10.510897391589385
O -13.487156656521119 5.198341222739119 -2.7409266081151618
H -13.713080288174623 4.305862511352106 -3.0432635381807245
H -13.776239901104745 5.771533489570469 -3.466766430145988
O -8.525466602528077 -16.606013195423323 6.316898219267334
H -7.998711579336868 -16.225172843250206 5.598248702048062
H -9.198480309937903 -17.13265471003962 5.860101536900739
O 15.80775861336204 -4.191343656675713 -15.777248517722189
H 15.601001066256183 -3.3118129054680185 -15.42704239085574
H 15.537281883402782 -4.142803967056258 -16.70646764224675
O -6.458522897818713 11.440128724862642 10.16138613675492
H -6.001126322603731 11.32515527704205 9.314901148005653
H -7.393786046211558 11.315025897567383 9.94094550946259
O -1.9548072976141144 10.563353156577051 -6.087524674989501
H -1.1381767064791894 10.316351317505534 -6.546950322965223
H -1.6652494648303493 10.757070179484854 -5.1833167780933795
O -7.547486845520846 6.254998984029269 12.3498105859885
H -7.71735535985027 6.7472503528154455 11.53261988935298
H -7.158815802183807 5.421524001753989 12.044497274302758
O -8.829039642188798 -11.57217489003548 -0.02046446681677505
H -9.730571080050424 -11.313810756379045 0.22337235953869605
H -8.324687758022455 -10.746968618397634 0.03974957213947583
O -9.195370933938808 9.620579470269824 -5.655790736947445
H -8.531340748469406 10.161046443748486 -5.201999242685721
H -9.664223691597442 10.252143287410878 -6.22171138581451
O -13.177085107429615 5.467777980808871 0.1606969428749198
H -13.101781668243643 5.559285858258557 1.122426144527557
H -12.694019079373536 6.233004995960712 -0.1857662905567513
O -8.560322817967712 -13.974388664781415 -3.3674034776250243
H -7.592184767091283 -13.96590170427881 -3.4074539813249185
H -8.75745291679437 -13.805289357921312 -2.433858035315959