194

C -5.0710522388059704 1.0783507462686561 0.47044029850746183
C -3.8153522388059704 0.1782507462686569 0.19534029850746193
C -4.11845223880597 -1.3219492537313435 0.5608402985074619
C -2.96945223880597 -2.3874492537313436 0.7034402985074619
C -2.52015223880597 0.7359507462686565 0.7384402985074618
C -2.20305223880597 0.7852507462686571 2.097440298507462
C -1.5755522388059702 1.205650746268656 -0.18965970149253808
C -0.9533522388059701 1.2695507462686564 2.508640298507462
H -2.91125223880597 0.4298507462686567 2.840840298507462
C -0.32655223880597006 1.6562507462686575 0.21554029850746192
H -1.7850522388059702 1.178550746268657 -1.2573597014925382
C 0.004447761194029898 1.6956507462686563 1.569740298507462
H -0.7158522388059702 1.2676507462686573 3.5705402985074617
H 0.3943477611940298 1.9193507462686572 -0.5551597014925382
C -1.76045223880597 -2.1592492537313435 -0.1734597014925381
C -0.5287522388059701 -1.936549253731343 0.464840298507462
C -1.8068522388059702 -2.121249253731343 -1.5681597014925381
C 0.6114477611940299 -1.614449253731343 -0.2582597014925381
H -0.4544522388059702 -1.954049253731343 1.5506402985074619
C -0.6479522388059701 -1.8270492537313432 -2.2998597014925384
H -2.74345223880597 -2.290549253731343 -2.092259701492538
C 0.5698477611940298 -1.5506492537313434 -1.6506597014925382
H 1.5072477611940298 -1.351949253731343 0.2991402985074618
H -0.7173522388059701 -1.7640492537313435 -3.3840597014925375
C 1.7791477611940298 -1.082849253731343 -2.4255597014925376
H 1.4739477611940297 -0.9102492537313429 -3.464259701492538
H 2.1252477611940295 -0.1337492537313434 -2.0010597014925384
C 1.3965477611940298 2.0964507462686566 1.997440298507462
H 1.51704776119403 1.8448507462686567 3.057640298507462
H 2.1256477611940294 1.5207507462686571 1.4165402985074618
C 3.94864776119403 -1.4275492537313434 -3.522959701492538
H 4.81734776119403 -2.087049253731343 -3.615159701492538
H 3.4305477611940303 -1.3641492537313429 -4.484459701492538
H 4.26984776119403 -0.441449253731343 -3.176459701492538
C 2.60904776119403 -3.4296492537313434 -2.8992597014925376
H 1.9825477611940296 -3.869549253731343 -2.119359701492538
H 2.06294776119403 -3.373349253731343 -3.845759701492538
H 3.5215477611940305 -4.019849253731343 -3.0234597014925377
C 3.7281477611940304 -2.060049253731343 -1.156659701492538
H 3.9048477611940298 -1.032549253731343 -0.8295597014925382
H 3.12924776119403 -2.623249253731343 -0.4404597014925382
H 4.68244776119403 -2.5769492537313434 -1.3005597014925383
C 3.1110477611940297 3.755250746268656 2.588740298507462
H 3.40124776119403 4.809350746268656 2.534540298507462
H 2.9823477611940303 3.461750746268656 3.634840298507462
H 3.86514776119403 3.1392507462686563 2.091540298507462
C 1.99744776119403 3.9574507462686572 0.40494029850746194
H 2.67914776119403 3.230350746268657 -0.04295970149253803
H 1.03214776119403 3.981150746268657 -0.10175970149253821
H 2.4399477611940297 4.958250746268657 0.368240298507462
C 0.7418477611940297 4.4992507462686575 2.475440298507462
H -0.18475223880597014 4.424250746268656 1.901240298507462
H 0.57844776119403 4.189650746268656 3.511940298507462
H 1.1210477611940297 5.524350746268658 2.4432402985074617
N 3.00114776119403 -2.025349253731343 -2.490159701492538
N 1.7831477611940298 3.586450746268657 1.862540298507462
C -3.55075223880597 -3.8435492537313434 0.6444402985074619
H -2.62515223880597 -2.2736492537313433 1.7424402985074618
H -4.67195223880597 -1.3478492537313436 1.5102402985074619
H -4.83415223880597 -1.6757492537313432 -0.1945597014925382
H -3.7169522388059697 0.17335074626865676 -0.900559701492538
H -3.9132522388059705 -4.043149253731343 -0.34225970149253815
H -4.35435223880597 -3.9354492537313432 1.3449402985074619
H -2.78115223880597 -4.545049253731343 0.8904402985074619
H -5.24235223880597 1.138950746268657 1.5249402985074618
H -5.92805223880597 0.6501507462686567 -0.006059701492538094
H -4.89895223880597 2.059650746268657 0.08004029850746197
C -0.44532335069538687 1.0323193456907824 -3.9211096719575744
O -0.5821814549139104 0.21375481953226316 -3.025008408469686
O 0.623486814821359 1.3058107962887227 -4.479212458761136
O -1.354469529132311 1.713882998825932 -4.408523866825354
O -4.862164556356296 -0.7891109535087126 -5.626843213259953
H -4.1958788367338915 -0.9759210034629779 -4.9485123928166095
H -4.959034196385823 -1.6304363325503535 -6.097746413207658
O 7.103056171602101 0.4422675471366785 -4.911771973852833
H 6.592833486624012 -0.35035632297419717 -5.136243729680171
H 7.325012012293162 0.8291547625439102 -5.772013702460299
O -5.555752386977694 4.1370519316419045 1.5693060715278202
H -5.47845153513562 4.107437240837595 2.5347670522479397
H -6.490620732768909 3.9435906996921326 1.4033064568593734
O 5.83786086487026 -0.7346375081112466 7.729570475608814
H 6.246138793840621 -0.12954645360774997 8.366862642025065
H 6.334857480237536 -1.5593378110403169 7.838316597204805
O 2.716109880892581 6.691783226520016 5.702506686901896
H 2.3049732569821026 6.795148622931291 6.573856001588167
H 3.3134811171193532 5.936956946935926 5.813623013686661
O 1.3701706244874385 -9.761363918077565 -3.6849565897881185
H 1.1187763973380198 -9.985141409017897 -4.593632513318833
H 0.9512573730845268 -8.901212589164773 -3.5312903167526937
O 9.397726372433146 -1.5973926169354766 -3.615200410241779
H 9.22007673257329 -1.0157024511205561 -2.8608500186120835
H 8.938226454631513 -2.4201557067051462 -3.3896285415325846
O 4.162120259905412 3.7456145320759924 -6.196469817766982
H 3.466795980723383 3.094426476182394 -6.3737989454970565
H 4.864745531541026 3.22873142019686 -5.774437211665129
O -8.86862541925009 -2.0309612356040914 1.1252871259442099
H -9.31621641016272 -1.7618723181994485 0.3090636171649983
H -8.259555784849256 -2.728241029395347 0.8392853533600895
O -6.963611427952558 9.706785588160386 0.9147609392339309
H -7.584547495923175 10.107850288311854 0.28822054733122027
H -6.1923910678719345 10.29282464310589 0.8875703788187559
O -7.034887840725347 -3.991028197482069 -1.5153366442132477
H -7.635098154970217 -4.381013580971303 -2.168503036672957
H -7.413936471916845 -4.253521981081182 -0.6630567060100354
O 8.430302694356302 4.350305477517782 -2.946651809051325
H 8.620682286583467 4.979550473083061 -2.2347714094619913
H 7.536108695389373 4.034732103292051 -2.747171278694801
O -6.813335902183253 -1.2523106427377644 3.912826355473014
H -6.769951118063656 -1.2118185083797877 2.945642037743434
H -6.893935046067087 -0.32509610208927686 4.182527890350378
O 3.8813517192542597 -5.3470006324678145 2.504291892826241
H 3.784598254921135 -5.314477724673305 3.467904047434167
H 3.503268651676694 -6.205079357480866 2.2599232369165385
O -9.498675161924778 3.4108987355176508 1.0085359690768723
H -9.380617976564277 2.4511296630947648 0.9463010471658588
H -8.786382454185661 3.7704772956656756 0.45871390523844235
O -1.4101858144236168 5.531876480596773 9.576510675720902
H -1.8815542116128525 6.378251129484493 9.555794866505673
H -1.2741226208085217 5.31679916716272 8.64152912462524
O 3.805932877498358 -3.3683601998439987 -6.394113645590638
H 4.150145879551244 -3.080761372018845 -7.253050011307761
H 3.653425020620228 -4.318331141161482 -6.509259242739698
O 0.6110979141677466 -6.5613970122230025 -7.865353567212898
H 0.4717090019171318 -6.610917892454846 -6.907707614648666
H 0.2255877119577091 -5.707912052260401 -8.114165245816636
O -6.6606127003381665 -6.270252369867428 1.2147778223102912
H -6.754257510555984 -6.8970921748509655 1.9477647698799407
H -5.830219093580942 -6.5307354517199485 0.7886828021265986
O 3.3246287572377806 -7.547971420393198 -5.87788418963713
H 3.1803008752686317 -7.719310282867877 -4.93513299574121
H 3.1041989379074404 -8.389308351957279 -6.305113409888194
C -12.429597786807154 -20.28483407332704 1.7408634282415782
O -11.236057217360308 -20.21099963331724 1.6876878525236076
O -13.623138356254001 -20.35866851333684 1.7940390039595489
O 6.531415609095169 -10.448581664792963 5.31582255962312
H 6.504890379129115 -10.958301418975537 4.49214207468293
H 7.376502377403121 -9.976506868622195 5.271826137596415
O 3.747183415212855 16.804982417668207 5.4318033111721435
H 3.6745957327173713 16.933529758832076 4.474111311451129
H 2.827282071466171 16.7438646213027 5.730145525819132
O 20.640743882453272 -5.724181453092162 -0.44706840008510285
H 19.90137669858434 -5.577105841701517 -1.0558970203484714
H 20.49890664724785 -6.625204687381002 -0.11995790761970127
O 3.2891147097690583 7.310608130701814 0.8208560583978445
H 2.892183518891727 7.714205992593871 0.03439451929700266
H 3.1389201424679043 7.964092166570818 1.5204003036872882
O 18.63147795681219 5.623362468361741 9.987924801690273
H 19.535053815308626 5.307739281422142 9.836597247330438
H 18.092318845956367 5.08583728220688 9.388478330576847
O -6.697407070044069 -0.22396161232888068 -12.203058819450607
H -7.421715912455921 -0.7414936688958912 -12.585818049423604
H -7.078316982483128 0.658978456850577 -12.083533018290177
O -13.481995991388326 -9.157009172823448 4.251643436797206
H -14.194494400751749 -8.99188689370975 4.887291143073956
H -13.946866653814075 -9.341581675005797 3.4217095822316788
O 2.6858258562764625 14.808208834677123 -1.5164768582666426
H 2.7289924465921125 14.788278336762712 -0.5486407266651171
H 3.2650309895427148 14.08172092558313 -1.79161078172622
O -9.044405694746704 -5.340063066635139 -5.463660881054986
H -9.836938385609693 -4.986314704169853 -5.032706838416335
H -9.065384964064563 -6.28552941916919 -5.2524377980719805
O 17.15564558282516 14.583765540798595 -5.428914449883285
H 16.413341592118403 14.591221557628629 -4.806101034730839
H 17.755527812337494 13.912698323813371 -5.070066229457123
O -17.673371291297762 -4.3730590117975146 -6.043579532245747
H -17.09308317210052 -4.415715340316435 -5.268716000224906
H -17.539319497186902 -5.225911051140449 -6.48361982561018
O 7.0711727718141 -18.620386250957168 -0.353331260478541
H 7.408027967212146 -17.768074371407558 -0.6680698730000465
H 7.807030512387559 -18.988245739598813 0.15867921456511613
O -12.583038382525217 3.0157611502810364 7.717776529869031
H -11.67384603105965 2.682622213531572 7.754587856359031
H -12.933733046452835 2.648280396665338 6.892589828137397
O -1.7909484755627005 14.741129273461766 -6.06505147966166
H -1.1212839530007557 15.395146771336275 -6.315606656410912
H -2.5373191448362817 15.27669239538154 -5.75672549829186
O -13.958866958689589 4.539971650448118 3.7793141519825912
H -13.38811684266686 5.299432962405747 3.588447241283954
H -14.162833653574591 4.174934125994792 2.9051819323392056
O -9.755648608587153 16.196909525589312 10.6325249523474
H -9.627509513676664 15.851076353269805 11.528598133610483
H -9.976065861143727 17.13026819188933 10.771160370325859
O 3.5449379161070427 -8.380236625903986 -15.731633971548593
H 3.4950284403417866 -7.4444145822529615 -15.485232868171082
H 2.631321811681122 -8.612162590127395 -15.956306856322541
O -16.4008788620137 -10.385170759787094 9.463971276738253
H -16.529768305139463 -10.294246797671263 8.507891938260586
H -16.899662620960527 -9.643835400318082 9.838936062967331
O 2.2881187574294426 16.48330918186647 -3.4755367619319575
H 2.8575589119587006 17.24979723037019 -3.3106084780912113
H 1.6189670824710785 16.534128355514525 -2.7765264674511503
O -9.530868815521604 11.355749713533061 -2.978854290084703
H -9.221036714457991 11.439235217490697 -2.064523060890682
H -9.360087033616924 10.427922708441177 -3.2000613783338947