194

C -5.0710522388059704 1.0783507462686561 0.47044029850746183
C -3.8153522388059704 0.1782507462686569 0.19534029850746193
C -4.11845223880597 -1.3219492537313435 0.5608402985074619
C -2.96945223880597 -2.3874492537313436 0.7034402985074619
C -2.52015223880597 0.7359507462686565 0.7384402985074618
C -2.20305223880597 0.7852507462686571 2.097440298507462
C -1.5755522388059702 1.205650746268656 -0.18965970149253808
C -0.9533522388059701 1.2695507462686564 2.508640298507462
H -2.91125223880597 0.4298507462686567 2.840840298507462
C -0.32655223880597006 1.6562507462686575 0.21554029850746192
H -1.7850522388059702 1.178550746268657 -1.2573597014925382
C 0.004447761194029898 1.6956507462686563 1.569740298507462
H -0.7158522388059702 1.2676507462686573 3.5705402985074617
H 0.3943477611940298 1.9193507462686572 -0.5551597014925382
C -1.76045223880597 -2.1592492537313435 -0.1734597014925381
C -0.5287522388059701 -1.936549253731343 0.464840298507462
C -1.8068522388059702 -2.121249253731343 -1.5681597014925381
C 0.6114477611940299 -1.614449253731343 -0.2582597014925381
H -0.4544522388059702 -1.954049253731343 1.5506402985074619
C -0.6479522388059701 -1.8270492537313432 -2.2998597014925384
H -2.74345223880597 -2.290549253731343 -2.092259701492538
C 0.5698477611940298 -1.5506492537313434 -1.6506597014925382
H 1.5072477611940298 -1.351949253731343 0.2991402985074618
H -0.7173522388059701 -1.7640492537313435 -3.3840597014925375
C 1.7791477611940298 -1.082849253731343 -2.4255597014925376
H 1.4739477611940297 -0.9102492537313429 -3.464259701492538
H 2.1252477611940295 -0.1337492537313434 -2.0010597014925384
C 1.3965477611940298 2.0964507462686566 1.997440298507462
H 1.51704776119403 1.8448507462686567 3.057640298507462
H 2.1256477611940294 1.5207507462686571 1.4165402985074618
C 3.94864776119403 -1.4275492537313434 -3.522959701492538
H 4.81734776119403 -2.087049253731343 -3.615159701492538
H 3.4305477611940303 -1.3641492537313429 -4.484459701492538
H 4.26984776119403 -0.441449253731343 -3.176459701492538
C 2.60904776119403 -3.4296492537313434 -2.8992597014925376
H 1.9825477611940296 -3.869549253731343 -2.119359701492538
H 2.06294776119403 -3.373349253731343 -3.845759701492538
H 3.5215477611940305 -4.019849253731343 -3.0234597014925377
C 3.7281477611940304 -2.060049253731343 -1.156659701492538
H 3.9048477611940298 -1.032549253731343 -0.8295597014925382
H 3.12924776119403 -2.623249253731343 -0.4404597014925382
H 4.68244776119403 -2.5769492537313434 -1.3005597014925383
C 3.1110477611940297 3.755250746268656 2.588740298507462
H 3.40124776119403 4.809350746268656 2.534540298507462
H 2.9823477611940303 3.461750746268656 3.634840298507462
H 3.86514776119403 3.1392507462686563 2.091540298507462
C 1.99744776119403 3.9574507462686572 0.40494029850746194
H 2.67914776119403 3.230350746268657 -0.04295970149253803
H 1.03214776119403 3.981150746268657 -0.10175970149253821
H 2.4399477611940297 4.958250746268657 0.368240298507462
C 0.7418477611940297 4.4992507462686575 2.475440298507462
H -0.18475223880597014 4.424250746268656 1.901240298507462
H 0.57844776119403 4.189650746268656 3.511940298507462
H 1.1210477611940297 5.524350746268658 2.4432402985074617
N 3.00114776119403 -2.025349253731343 -2.490159701492538
N 1.7831477611940298 3.586450746268657 1.862540298507462
C -3.55075223880597 -3.8435492537313434 0.6444402985074619
H -2.62515223880597 -2.2736492537313433 1.7424402985074618
H -4.67195223880597 -1.3478492537313436 1.5102402985074619
H -4.83415223880597 -1.6757492537313432 -0.1945597014925382
H -3.7169522388059697 0.17335074626865676 -0.900559701492538
H -3.9132522388059705 -4.043149253731343 -0.34225970149253815
H -4.35435223880597 -3.9354492537313432 1.3449402985074619
H -2.78115223880597 -4.545049253731343 0.8904402985074619
H -5.24235223880597 1.138950746268657 1.5249402985074618
H -5.92805223880597 0.6501507462686567 -0.006059701492538094
H -4.89895223880597 2.059650746268657 0.08004029850746197
C 0.7977126113290209 -1.5797129173912234 3.2758378876304595
O 1.6626238238059836 -1.832014733942118 2.451187727564539
O 0.1122697287139296 -2.4202385320136983 3.8694001926463906
O 0.47403124527399854 -0.4448027358052792 3.6444265979856647
O 4.918136537332119 -6.231793565516218 5.953353685690721
H 5.826646646702809 -6.456764591146288 6.2042815153513855
H 4.917209565001554 -6.305098574475635 4.987130388163821
O -8.620428512594687 -5.904191127979489 -3.990038120140866
H -8.609723163151767 -5.5358340801501855 -3.0938429194687207
H -8.664125335856124 -6.861870480312298 -3.8489608716127224
O 7.098514897667345 2.516951081180914 5.4841348438790325
H 7.874332388678846 2.3949984428058815 4.916506328444872
H 7.361374779413777 3.2253776285724074 6.09076360500005
O 4.0042150561545595 2.617903493415395 -3.9496355823298916
H 4.009961316609772 1.864810336353519 -4.559377358967641
H 3.3992159939339777 2.343342196061361 -3.244260382165124
O 7.557096245406983 0.6736030794177251 -3.761756687909572
H 7.2939872765109195 0.5278268166086326 -4.682892024647809
H 6.773163926836075 1.0719535579240318 -3.354658468220719
O -5.488679519893248 -2.9910237389624186 2.8997963613868025
H -4.940653192207466 -3.3254184671435483 3.62561635754832
H -6.386262216492842 -3.268367884451021 3.1372568255238855
O -0.47502616711029155 -7.402145545052068 -5.250570409051204
H 0.004142506179231287 -6.561766292807046 -5.194646784043
H -0.10926149432612409 -7.828020649894074 -6.040385921382343
O -3.8494799826920385 7.496164344656829 3.372797374691628
H -4.169945255974942 7.578396373503819 4.283570265675667
H -4.457191998239113 8.049909531702419 2.8599481587581734
O -5.334932132760722 -5.02937523645562 -4.427161847023655
H -5.579094587523594 -5.81813572057279 -4.93431956537113
H -4.9065771121829895 -4.454986131742282 -5.079504607413053
O 11.074585104510295 0.10562882002344409 0.5334342808478074
H 11.280707940222317 -0.644369621668579 1.111346965392431
H 10.741723969560136 -0.30804198578816333 -0.2771469140727665
O -3.598206859090183 4.8257150338377715 -2.971555141902341
H -3.477686598699858 5.472692897432587 -3.682794811601477
H -4.169773113575236 5.281127486164302 -2.3352584663650076
O -0.4964686659422666 -2.5744333895555034 -6.648200989976439
H -0.4181079625501991 -2.1178653972366823 -7.499301821519837
H -1.049038903369664 -1.9830707478886334 -6.115361142507981
O -5.414725540758179 -5.939448355433363 -1.574739777882492
H -5.712734559248775 -5.893028692247352 -2.495610668218358
H -6.172365979558314 -5.612462246039516 -1.066780139664836
O 3.967481924538955 -8.615190043770792 -2.2105412244094795
H 3.3881733992797716 -8.22863005882802 -1.5367902559477806
H 3.426001319255443 -8.6127805917262 -3.014129983005967
O 4.579089461812522 -0.04112542074337222 1.5617575197398506
H 3.7852315953480575 0.403031032206824 1.8956468577774561
H 4.965196890190085 0.6005813561051716 0.9468628860030468
O -4.597636870797523 6.118095202141156 -6.696324697309588
H -4.71825630927767 5.671722706902371 -5.844755614113728
H -4.559931780468913 7.058208676562128 -6.464534003632212
O 0.6029446655736688 -7.548525429759961 -1.9300759181531122
H -0.3521639310210062 -7.40380254659721 -1.8539824709975727
H 0.675416560297547 -8.433997071137092 -2.3169218061912478
O -3.3614675574570754 8.82339150416938 -4.390805891210967
H -2.884008989232084 8.76710011989702 -3.5494783969584356
H -4.142900613555334 9.3566867443672 -4.181233684276734
O 7.996510606678682 -2.053381514357623 -6.371821347967485
H 7.72446379854491 -1.8663079568191727 -7.282843507497172
H 7.165757098130542 -2.257566577226131 -5.916718049323827
O -4.246870758651363 -1.7653119476211567 -7.168503374964384
H -4.29422310219239 -2.275026107259429 -6.345753967231129
H -4.390703908206531 -2.426532552604754 -7.862089188641514
C -10.425193663546416 -11.084908198819237 0.6634359813137329
O -9.95344417182361 -12.179172764822288 0.5500528522802165
O -10.89694315526922 -9.990643632816187 0.7768191103472493
O 5.328581884647311 5.529880261474908 -6.888269076892237
H 5.020060609503301 6.412438074461516 -7.142972210794846
H 6.290244805116748 5.577603693814542 -6.997305060401894
O -2.5738821223832544 2.1381766799080157 -8.321115076852253
H -2.5027265422636913 3.0569240413737235 -8.620794115354531
H -2.047032365280832 2.1156812064192776 -7.508166596680455
O -2.25611406963948 7.558582041438152 -14.233179252867853
H -3.1360627118244855 7.395939814251176 -14.604938919793177
H -1.9820066610871963 6.69348161280394 -13.893431815418129
O -7.00062409401556 -17.654868957763888 -6.234379081227877
H -6.94151988788499 -17.01892448747528 -6.963109950909562
H -6.108591046930961 -18.029009710061644 -6.177302950673728
O 6.223664406803286 -2.1572509743562667 6.02132441702875
H 6.622586527078266 -1.318658068288631 5.744574644222422
H 6.04370566277273 -2.0306664504089347 6.965015655222669
O -5.426837894793351 -13.78834601503437 -13.39111058812145
H -5.27885192125881 -13.693174243466961 -14.344006092588627
H -5.120189754996221 -12.94676587491766 -13.021419189222186
O -10.007898340676391 9.790351626121925 -13.988193497478138
H -9.20208743576736 10.191630885767015 -14.346817392678073
H -9.779190286919963 9.587690509353296 -13.068637603474386
O 5.757341051589048 5.595130195894029 9.890426023348379
H 4.825351898017145 5.4843932124427655 9.649384750906412
H 6.221468055646879 5.588529887807447 9.039835343680735
O -9.599930109204088 -0.6944728869351212 -7.2810201293742605
H -9.530492645042985 -1.5280159494001053 -6.791784236897664
H -8.74167666532095 -0.2675932977610186 -7.139115983172404
O -0.7222887659506145 -13.816230732096791 -7.874470063398348
H -0.7783154582598635 -13.826273453590838 -8.841800157210114
H 0.14251847155701053 -14.210628890306547 -7.686001288649893
O -6.199450126175899 4.33626394579858 -15.706472910090374
H -6.498390016823799 3.5303151458717625 -16.153741096502003
H -6.224181894709473 5.012018028426127 -16.400523847513124
O 4.4826104033164045 -1.7450782929365314 -7.578644373517319
H 4.844530224923365 -2.034141807604565 -8.429775200191896
H 5.180929044575459 -1.1869099978794528 -7.2047979157794115
O -17.688847039563743 9.645872121664013 7.738074237608028
H -18.166834960543376 9.392866626243482 6.9340324951688785
H -16.75549233923234 9.558035062459687 7.492930200969128
O 2.2777185531643207 15.657882331148002 -7.030266276119184
H 2.9026194501520033 14.974941696342025 -7.31672450200002
H 1.439639200945261 15.394698832162199 -7.439313204411857
O 7.835014625766358 16.701251965718683 -2.438278096304046
H 7.629110653727067 17.17096706887525 -3.2604329680070974
H 8.070939983056302 17.407394597435022 -1.818065428132603
O 20.999122614899086 -4.480759554089736 -0.24355979316172416
H 21.492319635152164 -5.010121603438231 0.40103300607128567
H 20.07249620424747 -4.606116655193979 0.010627217886517215
O 16.78810751854425 10.887263451357121 -7.467203758426084
H 17.308801170107067 10.716920912288703 -8.266471484226335
H 16.75193641986855 10.0265438039983 -7.023565071462135
O -3.4856781383855893 -14.4075847139947 -11.673174180200155
H -3.5375631450235736 -14.563933287515235 -12.628072303847002
H -2.7007860458105175 -14.90420379551932 -11.396993378588663
O -5.679455375745093 -18.333270462450496 1.9067438917881758
H -5.774455385011198 -18.246176306228286 0.9463497211002325
H -6.59152598806899 -18.324878210721394 2.233881038174862
O 2.0689444751096158 -14.358901394931273 9.640810701018108
H 3.027012863294538 -14.337326934294932 9.784361608744241
H 1.96531632374681 -14.098216384439437 8.713305188446888