194

C -5.0710522388059704 1.0783507462686561 0.47044029850746183
C -3.8153522388059704 0.1782507462686569 0.19534029850746193
C -4.11845223880597 -1.3219492537313435 0.5608402985074619
C -2.96945223880597 -2.3874492537313436 0.7034402985074619
C -2.52015223880597 0.7359507462686565 0.7384402985074618
C -2.20305223880597 0.7852507462686571 2.097440298507462
C -1.5755522388059702 1.205650746268656 -0.18965970149253808
C -0.9533522388059701 1.2695507462686564 2.508640298507462
H -2.91125223880597 0.4298507462686567 2.840840298507462
C -0.32655223880597006 1.6562507462686575 0.21554029850746192
H -1.7850522388059702 1.178550746268657 -1.2573597014925382
C 0.004447761194029898 1.6956507462686563 1.569740298507462
H -0.7158522388059702 1.2676507462686573 3.5705402985074617
H 0.3943477611940298 1.9193507462686572 -0.5551597014925382
C -1.76045223880597 -2.1592492537313435 -0.1734597014925381
C -0.5287522388059701 -1.936549253731343 0.464840298507462
C -1.8068522388059702 -2.121249253731343 -1.5681597014925381
C 0.6114477611940299 -1.614449253731343 -0.2582597014925381
H -0.4544522388059702 -1.954049253731343 1.5506402985074619
C -0.6479522388059701 -1.8270492537313432 -2.2998597014925384
H -2.74345223880597 -2.290549253731343 -2.092259701492538
C 0.5698477611940298 -1.5506492537313434 -1.6506597014925382
H 1.5072477611940298 -1.351949253731343 0.2991402985074618
H -0.7173522388059701 -1.7640492537313435 -3.3840597014925375
C 1.7791477611940298 -1.082849253731343 -2.4255597014925376
H 1.4739477611940297 -0.9102492537313429 -3.464259701492538
H 2.1252477611940295 -0.1337492537313434 -2.0010597014925384
C 1.3965477611940298 2.0964507462686566 1.997440298507462
H 1.51704776119403 1.8448507462686567 3.057640298507462
H 2.1256477611940294 1.5207507462686571 1.4165402985074618
C 3.94864776119403 -1.4275492537313434 -3.522959701492538
H 4.81734776119403 -2.087049253731343 -3.615159701492538
H 3.4305477611940303 -1.3641492537313429 -4.484459701492538
H 4.26984776119403 -0.441449253731343 -3.176459701492538
C 2.60904776119403 -3.4296492537313434 -2.8992597014925376
H 1.9825477611940296 -3.869549253731343 -2.119359701492538
H 2.06294776119403 -3.373349253731343 -3.845759701492538
H 3.5215477611940305 -4.019849253731343 -3.0234597014925377
C 3.7281477611940304 -2.060049253731343 -1.156659701492538
H 3.9048477611940298 -1.032549253731343 -0.8295597014925382
H 3.12924776119403 -2.623249253731343 -0.4404597014925382
H 4.68244776119403 -2.5769492537313434 -1.3005597014925383
C 3.1110477611940297 3.755250746268656 2.588740298507462
H 3.40124776119403 4.809350746268656 2.534540298507462
H 2.9823477611940303 3.461750746268656 3.634840298507462
H 3.86514776119403 3.1392507462686563 2.091540298507462
C 1.99744776119403 3.9574507462686572 0.40494029850746194
H 2.67914776119403 3.230350746268657 -0.04295970149253803
H 1.03214776119403 3.981150746268657 -0.10175970149253821
H 2.4399477611940297 4.958250746268657 0.368240298507462
C 0.7418477611940297 4.4992507462686575 2.475440298507462
H -0.18475223880597014 4.424250746268656 1.901240298507462
H 0.57844776119403 4.189650746268656 3.511940298507462
H 1.1210477611940297 5.524350746268658 2.4432402985074617
N 3.00114776119403 -2.025349253731343 -2.490159701492538
N 1.7831477611940298 3.586450746268657 1.862540298507462
C -3.55075223880597 -3.8435492537313434 0.6444402985074619
H -2.62515223880597 -2.2736492537313433 1.7424402985074618
H -4.67195223880597 -1.3478492537313436 1.5102402985074619
H -4.83415223880597 -1.6757492537313432 -0.1945597014925382
H -3.7169522388059697 0.17335074626865676 -0.900559701492538
H -3.9132522388059705 -4.043149253731343 -0.34225970149253815
H -4.35435223880597 -3.9354492537313432 1.3449402985074619
H -2.78115223880597 -4.545049253731343 0.8904402985074619
H -5.24235223880597 1.138950746268657 1.5249402985074618
H -5.92805223880597 0.6501507462686567 -0.006059701492538094
H -4.89895223880597 2.059650746268657 0.08004029850746197
C 2.1132787887503905 2.0787870921572758 -3.05733857532646
O 1.3489894135760825 2.2768184377773077 -3.9892295752548765
O 3.256893142553988 1.6200235715973919 -3.158894993527782
O 1.8613818735926597 2.306504274375837 -1.8684982944407316
O -3.6999685808225875 -0.6010379180836751 7.786032199089755
H -3.81702584613154 0.17651697922408305 7.219751937018833
H -3.0857945219069314 -1.1621473583063278 7.289133451105732
O -2.454666471404991 -9.25678141734384 2.029616167897032
H -2.622444424121954 -8.432449334268627 1.5486852661086519
H -1.9384125694805399 -8.977107862780542 2.800477086562459
O 6.936553187337109 -6.819272369578823 6.692013078692138
H 6.948152217347719 -6.629037511990481 7.642088611668942
H 6.622413095920023 -5.99449798449159 6.291981628717963
O 1.7919455268174613 9.696502609447936 2.8928221267819696
H 2.0178880575292655 10.529735790550705 2.452776906804628
H 1.8461861415339964 9.036169867924853 2.1857290844687394
O 6.1130775436022535 0.08850220186573843 7.468777797570487
H 5.301815177006203 0.5824941416534402 7.276963583108264
H 6.038740644285647 -0.7061010027399108 6.919194576456137
O -6.991751301159851 10.945741465027497 2.310506944406722
H -6.580206707527636 10.792215236674453 1.4467777614102304
H -6.565889230183856 10.297401029286437 2.8912462320282217
O 6.327650446560714 8.756033018424356 -2.4969722511567727
H 6.814525967515259 8.466818031813997 -3.2832764388063183
H 5.4150863454323215 8.851263644855255 -2.808612802788462
O 6.217378253300523 5.470083520118177 2.9338891290620333
H 6.587723540102063 6.11423309097392 2.3118898880574745
H 6.864491758382057 5.441855224211729 3.654589634925121
O -1.3653007747759722 -3.603597891019449 -10.920546118099928
H -2.2988257022782688 -3.462554312905324 -11.13873245063384
H -1.3226132933892587 -3.4504280345826404 -9.96468068912366
O 0.896249506318205 -10.594346737179018 3.9351415287754397
H 0.15716395257072802 -10.949501131210894 4.451460478206544
H 0.6211915172289582 -9.689363650890506 3.7246405537898193
O 0.6014437851358412 3.3802732641976023 -8.226689665309905
H 1.076303186965854 3.213203377552378 -7.398702009381392
H -0.021809200040295296 4.086948974801045 -8.000576638679078
O -3.549087469197817 -4.31298355755272 -7.876522653953374
H -3.4158904167985336 -4.501152477708661 -6.935343415115472
H -2.6704665248115447 -4.435551351699952 -8.266348661581976
O -2.2005183224406983 4.849785879930751 7.537577032093151
H -1.7436085424010148 4.142795925070389 8.017541628215234
H -2.0912411929664443 5.6270083910242805 8.105860079106991
O -2.5318847161977445 -1.5844643185435818 -7.746734199462653
H -2.647399382356032 -2.0248985082417232 -8.60209461668295
H -3.436896943551866 -1.3947058451891583 -7.457067952844704
O 9.073271890861033 4.121889696379905 5.61475205822715
H 8.555439314136791 3.3107860720215396 5.728452057945079
H 8.755503920876995 4.486692233343749 4.775166106357441
O 7.533933078594947 2.753768432042395 2.801139638299161
H 6.923133977311039 3.357797190407396 2.352763597638191
H 7.890239881707985 2.20692776395305 2.0849185201527014
O -1.9958269230258587 0.32973763035388426 5.616333869921865
H -1.562733258434826 -0.5369569290091906 5.631753836249872
H -1.5053540049289111 0.8481794738318595 6.271785100635961
O -3.2917429134371727 10.199125211063395 6.734778764309807
H -3.1797189324574466 11.096763762927825 6.387412941592341
H -4.0714104111804925 9.863029066351146 6.267745661872484
O 1.9267085706565537 -8.465268947596218 -7.018726419035453
H 1.9890687053262583 -7.675888625444269 -7.577257776707754
H 1.4549524234578737 -8.157445632046821 -6.230276745128214
O 5.783917698381005 2.341866371719477 -6.07776132897705
H 5.676068688059185 2.461953593050463 -7.03322718767929
H 5.218783021243606 3.027132700792584 -5.690469708572638
C 4.424737665551662 8.912182480996961 9.27333273513138
O 3.8123378088878006 9.703135803245381 9.93073483041422
O 5.0371375222155255 8.121229158748545 8.61593063984854
O 3.5254482839900305 -15.218272136681101 2.1998482646473114
H 3.270660131945867 -15.679326267453778 3.01316212963141
H 4.4797832190615114 -15.372208007738736 2.1326878328154635
O 8.297284791702321 6.143728100252373 11.286187794476891
H 9.126796539809135 6.018448076217696 10.801231577658662
H 8.123166609397963 5.2757696248903745 11.680259980679246
O 10.861567031795145 0.7752958930028477 8.45638591295112
H 10.179066339180936 0.2771127506880551 7.9820719681903896
H 10.516849356870948 0.8430043943042995 9.35946244777326
O -13.498242056540716 -16.30464062695709 9.513395479995227
H -12.798498289328226 -15.721812931635034 9.844511614777055
H -13.018985360214913 -17.071919009184708 9.16617962855257
O -0.19900009595313062 -13.946908440576248 4.535219442905132
H -0.367246126114547 -13.579974554245435 3.6542993822315832
H 0.7649622723808838 -13.906679815010389 4.6253313423466516
O -2.0125471192896267 2.0829587328264108 14.773421466492646
H -2.034960899176085 1.1541193772931417 15.048598556715909
H -2.5427735005654073 2.099699147429826 13.962532024325528
O -2.947772487832632 12.930947294207224 -2.4114402856086405
H -2.9771442796311822 12.284287322154716 -3.1325058410830313
H -3.594986664504304 13.602934032114106 -2.6731836291581503
O 2.3448062179432574 9.336425668007896 -9.768673964738973
H 2.3286980909355552 9.758745457326773 -10.640656694323662
H 1.633413201868316 9.778458900467186 -9.281346002908963
O 15.44720233409024 8.136579435156543 -1.4572165116100724
H 14.519537480660766 8.214101391111528 -1.7262808588517422
H 15.419549579879607 7.546798130597743 -0.6888707025647665
O -7.049900644709412 -0.5441645712135887 6.581062525849418
H -7.046106451962874 -0.5933680121547757 7.54880835115736
H -6.5039984096875685 0.23180199782421118 6.384012842180908
O 1.6653101678479578 2.6284464641230905 -11.58611393206305
H 2.5749695829400467 2.5192609751085664 -11.901654158378143
H 1.4726605734795615 3.5644444192692406 -11.746600398943958
O 3.6807480193625013 10.241191482698305 7.519083444763141
H 3.496938146973263 10.404779932242995 6.581842756952472
H 2.8223318596822677 10.365434969502523 7.951110292408712
O -7.01549901233963 -5.688723113841069 -2.1570769786657675
H -6.841317898225283 -5.626859544838652 -3.1082873629741856
H -7.060558831038474 -4.765309961820267 -1.8668362032501926
O -7.349752051200819 -12.395620379384114 9.805242051034625
H -7.036937217579393 -12.384611370882386 8.888185325145649
H -6.811867568007419 -11.71960114502029 10.244150038897592
O 12.773544814717042 9.788549873838756 7.879580089304532
H 13.177950808171381 9.66803515351091 7.0072846396187565
H 12.214862302477359 9.004405486491443 7.988911578863843
O -12.277952114406549 -3.7826101477805745 0.227677761082556
H -11.578368262645082 -4.392820085571922 -0.05015964294229458
H -12.1555563823103 -3.0101356973071143 -0.34439256014583053
O -7.6230591154119605 -4.127714619468598 -9.152913919974939
H -8.14482995431837 -3.4619366582188356 -8.680195975656114
H -7.871540886440363 -4.963392139652427 -8.729993317466626
O 2.3531759023059258 -5.40917823806214 5.299847052352183
H 2.9486635279992144 -4.871399121987961 4.756564927797503
H 1.5096254958497024 -5.377512181926846 4.824050964772244
O -6.881019575723404 5.17829863931136 17.957525561277325
H -7.175817310010251 6.081162077797322 17.765433749362685
H -7.4487590731098745 4.623486795508718 17.401811943139645
O -3.266363950606177 17.358993427599934 9.881862773419819
H -2.7207951137119224 17.40394434760451 9.082299507692465
H -2.622794000089762 17.255315447457075 10.598822004845008