194

C -5.0710522388059704 1.0783507462686561 0.47044029850746183
C -3.8153522388059704 0.1782507462686569 0.19534029850746193
C -4.11845223880597 -1.3219492537313435 0.5608402985074619
C -2.96945223880597 -2.3874492537313436 0.7034402985074619
C -2.52015223880597 0.7359507462686565 0.7384402985074618
C -2.20305223880597 0.7852507462686571 2.097440298507462
C -1.5755522388059702 1.205650746268656 -0.18965970149253808
C -0.9533522388059701 1.2695507462686564 2.508640298507462
H -2.91125223880597 0.4298507462686567 2.840840298507462
C -0.32655223880597006 1.6562507462686575 0.21554029850746192
H -1.7850522388059702 1.178550746268657 -1.2573597014925382
C 0.004447761194029898 1.6956507462686563 1.569740298507462
H -0.7158522388059702 1.2676507462686573 3.5705402985074617
H 0.3943477611940298 1.9193507462686572 -0.5551597014925382
C -1.76045223880597 -2.1592492537313435 -0.1734597014925381
C -0.5287522388059701 -1.936549253731343 0.464840298507462
C -1.8068522388059702 -2.121249253731343 -1.5681597014925381
C 0.6114477611940299 -1.614449253731343 -0.2582597014925381
H -0.4544522388059702 -1.954049253731343 1.5506402985074619
C -0.6479522388059701 -1.8270492537313432 -2.2998597014925384
H -2.74345223880597 -2.290549253731343 -2.092259701492538
C 0.5698477611940298 -1.5506492537313434 -1.6506597014925382
H 1.5072477611940298 -1.351949253731343 0.2991402985074618
H -0.7173522388059701 -1.7640492537313435 -3.3840597014925375
C 1.7791477611940298 -1.082849253731343 -2.4255597014925376
H 1.4739477611940297 -0.9102492537313429 -3.464259701492538
H 2.1252477611940295 -0.1337492537313434 -2.0010597014925384
C 1.3965477611940298 2.0964507462686566 1.997440298507462
H 1.51704776119403 1.8448507462686567 3.057640298507462
H 2.1256477611940294 1.5207507462686571 1.4165402985074618
C 3.94864776119403 -1.4275492537313434 -3.522959701492538
H 4.81734776119403 -2.087049253731343 -3.615159701492538
H 3.4305477611940303 -1.3641492537313429 -4.484459701492538
H 4.26984776119403 -0.441449253731343 -3.176459701492538
C 2.60904776119403 -3.4296492537313434 -2.8992597014925376
H 1.9825477611940296 -3.869549253731343 -2.119359701492538
H 2.06294776119403 -3.373349253731343 -3.845759701492538
H 3.5215477611940305 -4.019849253731343 -3.0234597014925377
C 3.7281477611940304 -2.060049253731343 -1.156659701492538
H 3.9048477611940298 -1.032549253731343 -0.8295597014925382
H 3.12924776119403 -2.623249253731343 -0.4404597014925382
H 4.68244776119403 -2.5769492537313434 -1.3005597014925383
C 3.1110477611940297 3.755250746268656 2.588740298507462
H 3.40124776119403 4.809350746268656 2.534540298507462
H 2.9823477611940303 3.461750746268656 3.634840298507462
H 3.86514776119403 3.1392507462686563 2.091540298507462
C 1.99744776119403 3.9574507462686572 0.40494029850746194
H 2.67914776119403 3.230350746268657 -0.04295970149253803
H 1.03214776119403 3.981150746268657 -0.10175970149253821
H 2.4399477611940297 4.958250746268657 0.368240298507462
C 0.7418477611940297 4.4992507462686575 2.475440298507462
H -0.18475223880597014 4.424250746268656 1.901240298507462
H 0.57844776119403 4.189650746268656 3.511940298507462
H 1.1210477611940297 5.524350746268658 2.4432402985074617
N 3.00114776119403 -2.025349253731343 -2.490159701492538
N 1.7831477611940298 3.586450746268657 1.862540298507462
C -3.55075223880597 -3.8435492537313434 0.6444402985074619
H -2.62515223880597 -2.2736492537313433 1.7424402985074618
H -4.67195223880597 -1.3478492537313436 1.5102402985074619
H -4.83415223880597 -1.6757492537313432 -0.1945597014925382
H -3.7169522388059697 0.17335074626865676 -0.900559701492538
H -3.9132522388059705 -4.043149253731343 -0.34225970149253815
H -4.35435223880597 -3.9354492537313432 1.3449402985074619
H -2.78115223880597 -4.545049253731343 0.8904402985074619
H -5.24235223880597 1.138950746268657 1.5249402985074618
H -5.92805223880597 0.6501507462686567 -0.006059701492538094
H -4.89895223880597 2.059650746268657 0.08004029850746197
C 2.2863813173395884 -3.0054254597550454 2.748638836816854
O 2.1700168559769555 -1.9011499134866061 3.257372881918342
O 2.1017105201952138 -4.080824955993183 3.3300544233578604
O 2.6068227687149133 -3.2184227187658885 1.5736503993016826
O -0.9376576311325593 -3.326885751116536 -5.86468136523839
H -0.27177334307358736 -3.6416378791474164 -5.235001629407364
H -1.7687814624226181 -3.3720663767226506 -5.368542440710618
O 7.134549865889527 -3.255002937049137 -2.8726756820512036
H 7.108362614809084 -2.729908485173151 -2.0586993916164587
H 6.916739029511848 -2.6177541235415203 -3.5694068594357025
O -6.913899339256585 5.628298179375536 -0.09859182171872968
H -6.9169287051665265 5.671353488995226 0.8694497167266705
H -7.402459239333319 6.420013187236256 -0.3696241346725743
O -5.519934207766278 -5.177271396253422 -4.468019551745374
H -5.367142987709147 -5.247318903956131 -5.422333727810098
H -5.272202287155186 -6.0496620074386 -4.126661292249148
O -5.664818199918723 -2.551146526065541 -6.439121910715604
H -5.5070402489349615 -1.5951606578438742 -6.451947465044069
H -6.217000737676246 -2.686731370699679 -5.654473493141722
O -7.693078844367053 -9.722957994386629 -1.7496848907892961
H -8.305143078253066 -10.048787576088646 -1.072795081303721
H -6.979765820577674 -10.37878823439257 -1.7554442906021985
O -1.2812143692779725 -7.247115268964164 -0.9697292585802257
H -0.9224435251720997 -7.614638848733982 -1.7914209627082025
H -1.6588221480651575 -8.015032359856452 -0.5151111207822145
O -3.1955951283468966 8.90520711174494 -2.01542292234757
H -3.81074825151292 8.770656411005179 -2.7519350409780285
H -2.922076485067283 8.008039619196767 -1.772030263474504
O -0.12064812585502116 4.079604734990841 6.374373228217219
H -0.5917725991427503 4.473095493670307 7.1241559370090535
H -0.5171840071099116 3.2000534665345883 6.284313218588077
O -3.535700629226289 1.3433100960384134 -9.940660132154933
H -2.920597169132248 0.6076223244750425 -9.801453117057049
H -3.611467742798135 1.7537251369348006 -9.066142674920943
O 0.7885774028415757 6.958959292156367 -5.214924358653979
H 0.2169151998952339 6.180613771187346 -5.13525044441601
H 1.6325336713726835 6.669171293453508 -4.837137809244345
O 5.046053941630749 7.585673442597861 -0.8445765351520406
H 4.994564010600583 7.746136299001511 0.10966023610407272
H 5.88716277819353 7.9903006191976145 -1.104912313163662
O -0.8984756267495166 -5.727464807381844 5.8737886619271515
H -1.254413582508481 -4.850956250648194 6.083570163787591
H -0.7461430918374408 -5.69545553135087 4.917372356464289
O -2.2159226291214282 -9.263478208644644 1.3222795454660183
H -2.503675242666205 -9.189903607659785 2.2446420384090424
H -2.550444776316064 -10.128315940985981 1.041009970049506
O -3.1528852619564787 2.572340243340051 8.354622972586814
H -3.1821483882533643 3.3855477969216463 8.880745107777084
H -2.331608534327784 2.141415299703568 8.635283218983407
O -4.56695978751851 5.541365678348463 -6.229558266949727
H -4.368802019465146 5.830845403812621 -5.326285138596345
H -4.018169864379266 6.115236208241716 -6.784953783208959
O 0.7414137680140853 3.6638440733184496 -5.717422821019934
H 1.4899226907292673 3.0558072600593547 -5.622591480011364
H 0.032510215406497345 3.1083976235904798 -6.075049636128832
O 8.98881084380125 3.0015225546826145 3.365754019245965
H 9.940713328623026 2.949749351317362 3.192063053149763
H 8.92944518897928 3.489758861096011 4.20065699110998
O 6.373327039671908 -5.020583623560309 -1.9107260419892897
H 6.6485995254556105 -5.920370891306993 -2.142189404687194
H 6.999057055798019 -4.754705902246911 -1.2202675504577472
O -5.124192882783938 7.734165078514183 7.464824355265341
H -4.404213123889834 7.090885511740107 7.54721308418955
H -5.927326434821563 7.1988211346255895 7.550529102118908
C 5.103906359193231 -12.883302152617379 -5.742008840201426
O 4.011415219922902 -13.327343356270596 -5.536804606877595
O 6.19639749846356 -12.439260948964163 -5.947213073525256
O 8.433182060387011 -14.943523488398805 -1.5606785611877476
H 8.505346239329699 -15.141338501647942 -0.6148303129413538
H 8.61151390724609 -13.992636153688562 -1.6152035406327983
O 17.993156080489644 11.409077966628637 -5.907869246282615
H 17.930793375090293 10.44282072331168 -5.870117562707005
H 18.740127504776883 11.618279809446317 -5.327153976498894
O -3.5384171248284773 5.075629336411403 -12.035297638199824
H -3.389310425006263 4.119875836892769 -12.092479778121417
H -3.3973841839267855 5.278881151836374 -11.098408982378295
O -0.9581711335868233 8.757980430571342 6.817377184308842
H -0.7960584477021575 8.628432845253931 7.763899374811363
H -0.5617574656746367 7.976905335438131 6.402962121895507
O -11.941499477003909 -4.051522472865929 11.973757446010373
H -12.149695982028737 -4.980146785249351 11.791333602596572
H -11.923800415733325 -3.639042132793723 11.097111190908544
O 6.075549195038268 20.111039200595705 -2.912110758095771
H 6.043359210705872 20.472638722360777 -2.0136804894227085
H 6.916578286005227 19.63062937102557 -2.94106603567486
O -5.842914627326351 3.5998569460511325 6.333994272367763
H -4.886342572746133 3.576940809194488 6.487004441859038
H -6.199190000719388 4.003755788149192 7.139534791501033
O -2.819170032693961 -16.639152373012934 -8.774080395368859
H -2.521449492641614 -16.613892207898434 -7.852293130871607
H -2.2996619866215933 -17.355867901522103 -9.168278550564807
O -16.34155641579612 -2.7306629264982094 -11.011503017655919
H -16.1597501112046 -2.372181102315654 -11.893208527586257
H -16.86274196722365 -2.037164152130808 -10.57977739271099
O -6.728192341969805 -17.03305044350916 8.242406922837674
H -6.53185691144837 -16.447283694232492 8.988930245356006
H -7.109908026923343 -17.82112984293229 8.657359860368341
O 0.36841146226293775 -7.610634195381404 3.5396061393713945
H 0.4995539583507653 -8.076145972734032 4.37928928661555
H 1.264513499860465 -7.511699952057325 3.1843947966309765
O 0.48250758515323167 5.914937686833833 -15.130366929053205
H 0.7456843690210451 6.111026606538261 -16.042098508467973
H 1.191690029672698 5.343295260812351 -14.799841375642178
O -9.616064132498032 5.65935497940332 1.3607118113076604
H -10.036507744107166 5.892789588948903 2.2019625524207775
H -9.88937567117739 4.7421565648699 1.2090219451263664
O 13.247004854029136 18.244370932376736 5.496210497165595
H 12.993102941316728 17.812722416680906 4.666643902781173
H 14.0209434805177 17.7428777978525 5.793675760270469
O 5.249827966155838 -12.412196352872183 11.413088663467002
H 5.837927150733945 -12.36013600519374 10.644716080537231
H 5.401288436931749 -11.577151012828056 11.88076478020051
O -16.035939596123356 -1.2911470066454145 -0.23048968167358996
H -16.876705558414987 -0.9988873208259479 0.1524779796198148
H -15.472510879584616 -0.5040185435576534 -0.18645778100371757
O 14.80046264694765 9.06398969487605 -0.2900248221548789
H 14.140798334399195 9.202593495332499 -0.9861565181356091
H 15.322468537394874 9.880342507870735 -0.296339832373663
O 8.97873733532137 -2.757488832834892 -8.763275035628789
H 8.189910010431277 -3.034533638988301 -9.253137244612255
H 9.375144888963202 -3.590717210473784 -8.467380685542548
O 7.805674758266758 -0.293645419367081 12.635920442102865
H 7.741148899637816 -0.45502850780173687 11.68263178212862
H 8.75567212989761 -0.3485327602153463 12.818825658018314
O -0.3872298825957209 0.06739604643844377 -7.6553285760699925
H -0.9289735831014769 0.47339161278555153 -8.348616914331082
H 0.1942796371441712 0.7850097710450901 -7.362345359813405