194

C -5.0710522388059704 1.0783507462686561 0.47044029850746183
C -3.8153522388059704 0.1782507462686569 0.19534029850746193
C -4.11845223880597 -1.3219492537313435 0.5608402985074619
C -2.96945223880597 -2.3874492537313436 0.7034402985074619
C -2.52015223880597 0.7359507462686565 0.7384402985074618
C -2.20305223880597 0.7852507462686571 2.097440298507462
C -1.5755522388059702 1.205650746268656 -0.18965970149253808
C -0.9533522388059701 1.2695507462686564 2.508640298507462
H -2.91125223880597 0.4298507462686567 2.840840298507462
C -0.32655223880597006 1.6562507462686575 0.21554029850746192
H -1.7850522388059702 1.178550746268657 -1.2573597014925382
C 0.004447761194029898 1.6956507462686563 1.569740298507462
H -0.7158522388059702 1.2676507462686573 3.5705402985074617
H 0.3943477611940298 1.9193507462686572 -0.5551597014925382
C -1.76045223880597 -2.1592492537313435 -0.1734597014925381
C -0.5287522388059701 -1.936549253731343 0.464840298507462
C -1.8068522388059702 -2.121249253731343 -1.5681597014925381
C 0.6114477611940299 -1.614449253731343 -0.2582597014925381
H -0.4544522388059702 -1.954049253731343 1.5506402985074619
C -0.6479522388059701 -1.8270492537313432 -2.2998597014925384
H -2.74345223880597 -2.290549253731343 -2.092259701492538
C 0.5698477611940298 -1.5506492537313434 -1.6506597014925382
H 1.5072477611940298 -1.351949253731343 0.2991402985074618
H -0.7173522388059701 -1.7640492537313435 -3.3840597014925375
C 1.7791477611940298 -1.082849253731343 -2.4255597014925376
H 1.4739477611940297 -0.9102492537313429 -3.464259701492538
H 2.1252477611940295 -0.1337492537313434 -2.0010597014925384
C 1.3965477611940298 2.0964507462686566 1.997440298507462
H 1.51704776119403 1.8448507462686567 3.057640298507462
H 2.1256477611940294 1.5207507462686571 1.4165402985074618
C 3.94864776119403 -1.4275492537313434 -3.522959701492538
H 4.81734776119403 -2.087049253731343 -3.615159701492538
H 3.4305477611940303 -1.3641492537313429 -4.484459701492538
H 4.26984776119403 -0.441449253731343 -3.176459701492538
C 2.60904776119403 -3.4296492537313434 -2.8992597014925376
H 1.9825477611940296 -3.869549253731343 -2.119359701492538
H 2.06294776119403 -3.373349253731343 -3.845759701492538
H 3.5215477611940305 -4.019849253731343 -3.0234597014925377
C 3.7281477611940304 -2.060049253731343 -1.156659701492538
H 3.9048477611940298 -1.032549253731343 -0.8295597014925382
H 3.12924776119403 -2.623249253731343 -0.4404597014925382
H 4.68244776119403 -2.5769492537313434 -1.3005597014925383
C 3.1110477611940297 3.755250746268656 2.588740298507462
H 3.40124776119403 4.809350746268656 2.534540298507462
H 2.9823477611940303 3.461750746268656 3.634840298507462
H 3.86514776119403 3.1392507462686563 2.091540298507462
C 1.99744776119403 3.9574507462686572 0.40494029850746194
H 2.67914776119403 3.230350746268657 -0.04295970149253803
H 1.03214776119403 3.981150746268657 -0.10175970149253821
H 2.4399477611940297 4.958250746268657 0.368240298507462
C 0.7418477611940297 4.4992507462686575 2.475440298507462
H -0.18475223880597014 4.424250746268656 1.901240298507462
H 0.57844776119403 4.189650746268656 3.511940298507462
H 1.1210477611940297 5.524350746268658 2.4432402985074617
N 3.00114776119403 -2.025349253731343 -2.490159701492538
N 1.7831477611940298 3.586450746268657 1.862540298507462
C -3.55075223880597 -3.8435492537313434 0.6444402985074619
H -2.62515223880597 -2.2736492537313433 1.7424402985074618
H -4.67195223880597 -1.3478492537313436 1.5102402985074619
H -4.83415223880597 -1.6757492537313432 -0.1945597014925382
H -3.7169522388059697 0.17335074626865676 -0.900559701492538
H -3.9132522388059705 -4.043149253731343 -0.34225970149253815
H -4.35435223880597 -3.9354492537313432 1.3449402985074619
H -2.78115223880597 -4.545049253731343 0.8904402985074619
H -5.24235223880597 1.138950746268657 1.5249402985074618
H -5.92805223880597 0.6501507462686567 -0.006059701492538094
H -4.89895223880597 2.059650746268657 0.08004029850746197
C 3.850124443530786 -1.3662969793633397 2.2638267405414716
O 2.9672757808457444 -0.9966018847389224 3.022562053022627
O 4.545521919863779 -2.3768268618522557 2.4183685491456264
O 4.18477956947367 -0.7870941140179972 1.224029466138476
O 4.849537812950786 -4.092140875236307 5.636180521827276
H 5.095768499583835 -4.050224245538191 4.699921582209091
H 4.874062348513416 -3.1679013927582615 5.926252703334143
O 7.208982514033644 3.0492738427176542 -7.202081525118476
H 7.084275402102301 2.984227040407564 -6.243340472152151
H 6.833174951089862 3.913146628044358 -7.42891721610677
O -2.852233766092482 -7.02068476051183 2.477526895997289
H -2.833281225728331 -7.484818812108751 1.6271224391286918
H -3.4441437952734173 -7.558565268709889 3.0246000360394794
O 11.59464594128513 -0.2441793990643535 1.7727981838393099
H 10.792968335848155 -0.3596205729907145 2.3047321169582125
H 11.308236507817966 -0.44965274733688254 0.8701840448681253
O 8.394697689547938 6.52683726333851 -2.374455205369328
H 8.663845832839407 5.696143148470828 -1.9543672129356544
H 8.294204500680022 6.294314644978693 -3.309760660951756
O -0.5352692864958934 7.765184221546189 8.227905299225846
H -0.09719959131036271 7.724348311965965 7.364542844894635
H -0.7094027025862619 8.70954851646845 8.357580185679142
O -6.030381679506535 -3.7868648977411485 3.042058929251532
H -6.861723119975049 -3.7705476497115904 3.5396255214545045
H -6.182914673291209 -3.1692619330657887 2.3111265054726378
O 2.9114501252804525 4.021047389000892 -6.132623219041315
H 3.151569587397961 4.426589643340347 -6.97929049770376
H 3.3041792292010985 3.1363190895074586 -6.177138736663192
O -6.161752450206539 -8.13952415560619 0.4090779216581444
H -5.381853888388734 -8.6310553449855 0.7076121408724285
H -5.7979801335505545 -7.309979520543486 0.06485801466056884
O 0.7008023334568492 4.812796020066003 -2.754694546037617
H 0.4907222913945235 5.278829081626826 -1.9315014226702398
H -0.12009762053612727 4.8614574046262655 -3.2672540835422925
O -4.428803999556917 3.8754614856180045 -1.0490240974248068
H -5.054003806712197 4.166577904198001 -1.7297177060815627
H -3.6203500968275977 4.372009186560858 -1.2460129604351338
O 0.5998730201635385 5.4247723814641 8.6250624221294
H 0.7168081881936215 5.629303461273607 7.68513659485911
H -0.2641480323912291 5.806126894599834 8.84185333603761
O 7.723670294619451 -6.466216857335905 -6.007260736022909
H 7.846251743778695 -6.504144289543479 -5.046790718214878
H 7.181511374525056 -5.674626537728778 -6.1429457225408255
O 4.817131011539141 6.331154772432107 -3.122033453027447
H 5.613505149989874 6.483938264601268 -3.6525169994522635
H 5.146155764763907 5.878609010543218 -2.33089061544261
O -1.8968349767025174 8.531889971771392 0.500668284118841
H -2.5330851602427242 8.292900640053123 1.1913470518321023
H -1.0797380530844967 8.086604759318417 0.770919354948679
O 1.309310126617786 -4.217882533321022 -6.435775949908398
H 1.4103473508602784 -4.7263210014858545 -7.2544634118299625
H 1.2394544296107814 -4.895439222717865 -5.74657419530438
O 10.675681287835191 3.4380872209252056 2.0270265871930415
H 11.338248365928576 2.9843009795901074 2.569290610618679
H 10.286084853596476 4.089216691401471 2.6296931412723064
O 2.097151472849979 -5.374455487748628 2.3335542405187266
H 1.9761618637281693 -5.64917379120987 1.412218945890365
H 2.7333295832702884 -6.014259597443982 2.686952114506359
O -0.9071505907366375 4.842033378152239 -6.271941383699595
H -0.8192563120253573 5.639952465486308 -5.729201038103479
H -0.7038945342464498 4.11896647852602 -5.659713339205563
O -1.6537827191642562 -0.9472523428053212 6.73509320896808
H -0.9658583385597201 -0.513798981473229 7.262203811232705
H -2.021170616671503 -1.6150602786539356 7.333441466994136
C 15.221257134591422 -5.739618215078664 8.565635644118121
O 15.766220015887221 -6.456201517455938 9.35452225578285
O 14.676294253295623 -5.023034912701391 7.776749032453388
O 1.7646005342837037 -5.083636558215778 -20.017763505988597
H 1.4792783407448264 -5.465566932002113 -19.174147602657232
H 2.5006630525555322 -5.6500428199410395 -20.294092766425756
O 16.19728647840349 -6.554731713167634 -3.9572137994932404
H 15.568053954211944 -6.064241905063736 -4.507171557458101
H 16.91767060342513 -6.775977019774616 -4.566360063555649
O 10.160797967674629 -3.9271662667203713 -10.700381671866221
H 10.450222991561125 -3.3206693128163973 -11.398494812663257
H 10.951239753195846 -4.4520732337924676 -10.503820221115562
O 8.405919903787579 -6.182699151097433 -0.09044295497538402
H 8.073034952426724 -5.889905777715304 -0.9520849958258732
H 7.715333129184488 -5.9100539583785245 0.532225857420555
O -20.028862492256607 -4.98647279696767 2.5543155237144823
H -20.04071598840964 -4.924303536806998 3.5212497689556086
H -19.973654068301308 -4.064533452497135 2.2611571717242813
O 8.696197941185485 7.626267808856067 12.800068703929085
H 8.751436026312556 7.903958973669104 11.873352065556666
H 9.173407301836638 8.319134228989197 13.280869384314228
O 11.06243631124906 -14.799941514315595 9.19937926433303
H 10.817249201377429 -14.972894232564396 10.12075757713573
H 11.446970465172589 -15.636919265815791 8.898441276933646
O 17.268035419817352 -15.744172157588746 2.1916753018604602
H 16.366894947158208 -16.09152333127408 2.27079778649712
H 17.15083119344827 -14.78250292156324 2.2121055271001744
O 13.315643691387153 11.425029697350555 11.416170737831656
H 12.454822950459665 11.850605993010884 11.286402384751693
H 13.738279355416203 11.957521568438619 12.106673052828397
O -8.715752597294516 5.535219513500458 -4.111978406650757
H -9.259837206433344 5.525800840053911 -3.3101987713464194
H -7.857232472453027 5.866473096126928 -3.8083730649005147
O 6.033818647078801 14.380747246079455 0.025284946512305062
H 5.5760887965005725 13.781803816098435 -0.5835808091943226
H 6.099649511960085 15.211591440745593 -0.46900865623666377
O -2.664213869571944 16.209910531626853 -13.212124097351309
H -2.2311899193062965 16.53185033104171 -14.016992024994757
H -2.6094252399067246 16.95982144377354 -12.60090091863282
O 12.50253735552215 -20.86073722935891 9.447731301114407
H 11.801448157695859 -20.84291567955748 8.779058222582027
H 12.067818148881452 -21.22594022662227 10.232975165444172
O 1.069907815227399 20.535292084594047 0.8591901714029349
H 1.5874810090168001 19.756410512820928 1.1130185447635035
H 0.16417474847309377 20.309309983942217 1.1190779284689958
O 5.626999559882653 1.5212280924003323 -0.1876322483394416
H 5.711163867017518 1.9688216135407424 0.6676710698685717
H 6.355755225908467 1.8830835074137129 -0.7138810318637037
O 5.190365152353927 9.873677692357258 9.48166176869792
H 5.163528482328923 10.289886709974564 10.356314387567839
H 5.512811157830665 8.977238294208671 9.658825318275971
O -13.355087194081772 -12.895927804284831 -6.244397776283765
H -12.69204689108426 -12.612109150197396 -6.891539093998037
H -14.200881060632868 -12.719046620598 -6.682926824879279
O -6.7680832949169805 -15.699385883350732 6.177000044414056
H -6.327722693082004 -15.713179068443948 5.313947528458902
H -7.659323693998855 -15.374140470360302 5.979850566420673
O 4.72054902289696 -1.4047681520891864 11.83604867250667
H 4.280691625229718 -1.5998361195451032 10.994953365962866
H 5.408912155743023 -2.0834579189962956 11.90311835219822
O -10.450241655831118 7.440478914076065 -0.1391199023599345
H -10.66747717378981 6.665160743011038 0.4000070031582392
H -9.536099671193995 7.6477139195906 0.10656287830059971