194

C -5.0710522388059704 1.0783507462686561 0.47044029850746183
C -3.8153522388059704 0.1782507462686569 0.19534029850746193
C -4.11845223880597 -1.3219492537313435 0.5608402985074619
C -2.96945223880597 -2.3874492537313436 0.7034402985074619
C -2.52015223880597 0.7359507462686565 0.7384402985074618
C -2.20305223880597 0.7852507462686571 2.097440298507462
C -1.5755522388059702 1.205650746268656 -0.18965970149253808
C -0.9533522388059701 1.2695507462686564 2.508640298507462
H -2.91125223880597 0.4298507462686567 2.840840298507462
C -0.32655223880597006 1.6562507462686575 0.21554029850746192
H -1.7850522388059702 1.178550746268657 -1.2573597014925382
C 0.004447761194029898 1.6956507462686563 1.569740298507462
H -0.7158522388059702 1.2676507462686573 3.5705402985074617
H 0.3943477611940298 1.9193507462686572 -0.5551597014925382
C -1.76045223880597 -2.1592492537313435 -0.1734597014925381
C -0.5287522388059701 -1.936549253731343 0.464840298507462
C -1.8068522388059702 -2.121249253731343 -1.5681597014925381
C 0.6114477611940299 -1.614449253731343 -0.2582597014925381
H -0.4544522388059702 -1.954049253731343 1.5506402985074619
C -0.6479522388059701 -1.8270492537313432 -2.2998597014925384
H -2.74345223880597 -2.290549253731343 -2.092259701492538
C 0.5698477611940298 -1.5506492537313434 -1.6506597014925382
H 1.5072477611940298 -1.351949253731343 0.2991402985074618
H -0.7173522388059701 -1.7640492537313435 -3.3840597014925375
C 1.7791477611940298 -1.082849253731343 -2.4255597014925376
H 1.4739477611940297 -0.9102492537313429 -3.464259701492538
H 2.1252477611940295 -0.1337492537313434 -2.0010597014925384
C 1.3965477611940298 2.0964507462686566 1.997440298507462
H 1.51704776119403 1.8448507462686567 3.057640298507462
H 2.1256477611940294 1.5207507462686571 1.4165402985074618
C 3.94864776119403 -1.4275492537313434 -3.522959701492538
H 4.81734776119403 -2.087049253731343 -3.615159701492538
H 3.4305477611940303 -1.3641492537313429 -4.484459701492538
H 4.26984776119403 -0.441449253731343 -3.176459701492538
C 2.60904776119403 -3.4296492537313434 -2.8992597014925376
H 1.9825477611940296 -3.869549253731343 -2.119359701492538
H 2.06294776119403 -3.373349253731343 -3.845759701492538
H 3.5215477611940305 -4.019849253731343 -3.0234597014925377
C 3.7281477611940304 -2.060049253731343 -1.156659701492538
H 3.9048477611940298 -1.032549253731343 -0.8295597014925382
H 3.12924776119403 -2.623249253731343 -0.4404597014925382
H 4.68244776119403 -2.5769492537313434 -1.3005597014925383
C 3.1110477611940297 3.755250746268656 2.588740298507462
H 3.40124776119403 4.809350746268656 2.534540298507462
H 2.9823477611940303 3.461750746268656 3.634840298507462
H 3.86514776119403 3.1392507462686563 2.091540298507462
C 1.99744776119403 3.9574507462686572 0.40494029850746194
H 2.67914776119403 3.230350746268657 -0.04295970149253803
H 1.03214776119403 3.981150746268657 -0.10175970149253821
H 2.4399477611940297 4.958250746268657 0.368240298507462
C 0.7418477611940297 4.4992507462686575 2.475440298507462
H -0.18475223880597014 4.424250746268656 1.901240298507462
H 0.57844776119403 4.189650746268656 3.511940298507462
H 1.1210477611940297 5.524350746268658 2.4432402985074617
N 3.00114776119403 -2.025349253731343 -2.490159701492538
N 1.7831477611940298 3.586450746268657 1.862540298507462
C -3.55075223880597 -3.8435492537313434 0.6444402985074619
H -2.62515223880597 -2.2736492537313433 1.7424402985074618
H -4.67195223880597 -1.3478492537313436 1.5102402985074619
H -4.83415223880597 -1.6757492537313432 -0.1945597014925382
H -3.7169522388059697 0.17335074626865676 -0.900559701492538
H -3.9132522388059705 -4.043149253731343 -0.34225970149253815
H -4.35435223880597 -3.9354492537313432 1.3449402985074619
H -2.78115223880597 -4.545049253731343 0.8904402985074619
H -5.24235223880597 1.138950746268657 1.5249402985074618
H -5.92805223880597 0.6501507462686567 -0.006059701492538094
H -4.89895223880597 2.059650746268657 0.08004029850746197
C -1.1201868074566823 1.58728421272761 -3.8611937949430803
O -1.2141974632102221 0.5053453361146414 -3.30231477182783
O -0.23253315224703996 1.9004110867200725 -4.662850837123008
O -1.8981661295127508 2.5365035175273283 -3.711596768740285
O 7.951253543119048 4.505167330787712 1.9566704452422217
H 8.648739319674988 3.859304421474865 1.7686756294198025
H 7.130095194382077 4.007722407996397 1.825485616131858
O -3.8920692262489807 -0.058146873869876714 -4.179014345008793
H -4.288112620537145 0.6882136430992725 -3.704606329214104
H -3.0503353669427753 -0.2057285586544071 -3.7222149352963454
O 6.92267781368455 4.817476041558503 -4.13885184887153
H 6.181578363762717 4.2842480896622614 -4.463516157877146
H 6.79792659734554 4.831177391563053 -3.178012969906909
O -1.0640683235342925 -1.4823947504687176 -8.805138039232821
H -1.2424761592046645 -2.242112918356159 -8.230711101795897
H -0.957355965959855 -1.8741601213128956 -9.684964335298261
O 7.66593048062245 -3.4988486221543673 5.476081902433216
H 7.665542403577835 -3.5225101659512816 6.444796172815021
H 6.878126761154095 -4.006194040415693 5.229246186903498
O 0.706691458494032 0.5631775023825079 9.124380696789578
H 0.267020780362353 0.2848545706511766 8.306949722722832
H 1.0730654184875341 -0.2584251573501784 9.484521135033956
O 3.7624158463332615 -0.865148706236952 -8.662621400707833
H 3.450659682213138 -0.2813335875064179 -9.370389270969516
H 2.977438017544322 -1.3789889375029758 -8.420258100387262
O -5.006327216225413 2.799200135615761 -5.709445205519287
H -4.8528922709829505 2.8273959091935486 -6.665808145427977
H -5.116515718465885 3.7297146864137027 -5.462538119700943
O -0.7098244791972466 -6.481168552920717 -5.8823851353575165
H -0.37495745703623484 -6.917338705203814 -5.084521091408701
H -1.6625793615731315 -6.65676821904626 -5.862767906564658
O -8.875329561901545 -0.21680050340080026 -6.46920094442424
H -9.779641968188233 0.12611741254960762 -6.4092532033808425
H -8.946977112022926 -1.1248993688849729 -6.138769373039237
O 2.6067423345345797 -3.57845865685441 8.151187205504078
H 3.101828649887658 -3.046969549650675 7.509801029964028
H 2.739772493624862 -3.1148766434924484 8.991637464567447
O -4.730905989143949 4.5810149053690825 2.455754285071287
H -4.95599512349996 4.654991722322068 1.5161641249225293
H -5.553993639186213 4.811086656384952 2.9124332248445106
O 2.2398378102978307 -8.410246131424191 -2.2802875715727295
H 2.6418567059554965 -7.996899234448458 -3.0590638598575763
H 2.6679007874415532 -9.278036587014736 -2.228675973217234
O 3.724588993400171 -9.266835807350223 4.8011723325140565
H 3.267166165428592 -9.14528876090292 5.646724240353205
H 3.707411188690271 -8.386285494513096 4.39707084292538
O -7.689305555625668 4.755443998896002 5.202455567220094
H -7.562014088408639 4.419629955249663 4.302459363137191
H -6.857862471112762 5.211374081576575 5.401935143173493
O 6.142467044009595 0.751286236834583 4.679435053534069
H 6.120021846024584 0.7140978116670587 5.647464283991999
H 5.251995332093479 1.0456772167804824 4.4358041328698965
O 6.347928394959003 -6.08324123652605 6.419237698824787
H 5.914962659302794 -5.2598855765692045 6.690518892173508
H 5.726714464920988 -6.7751730907720145 6.691791375201506
O -7.59277093972082 -0.6721379026333736 -3.541157755134952
H -8.44243944923402 -0.7696375759358984 -3.0856090809545496
H -7.8225454602457525 -0.23231436270998262 -4.373456299977362
O -2.0974936484567213 7.417829627539795 -4.733102100608822
H -1.552938037450995 8.11885027856512 -5.121684897781071
H -2.9917743894122872 7.7909400280941625 -4.7295623754608265
O 6.632340264830537 2.6929165482125113 6.456307605165297
H 6.64965815445264 2.815642332149126 5.495263470093353
H 7.043987477777302 3.4988698237571887 6.802642463376198
C 0.4911163827539622 12.255281203644687 -13.840769029146607
O 0.4342122218915847 12.323035302878033 -15.034498293181644
O 0.548020543616341 12.187527104411341 -12.647039765111572
O -1.9662081020578306 14.228910004505284 0.4212330309966854
H -2.4406087152876257 13.834827184652763 1.1686352962891309
H -1.0331013604046246 14.061272345345696 0.6216609936486814
O -8.102810646591072 13.353336819303962 -1.8331939974688953
H -8.220542634011707 13.061991467982939 -2.7498315606865606
H -7.243521028474351 13.801170993282218 -1.8384712234480225
O -3.0773930686953035 -7.082853588963715 -18.94439974648694
H -3.7224994847368764 -7.029628046475264 -19.665490663437648
H -3.40239212161627 -7.810236528518672 -18.39280966395747
O 5.219470181959921 -19.19167886257507 8.647010558880936
H 6.153253980297558 -19.19464083858822 8.388154611372997
H 5.152317514711833 -19.91419746479188 9.289209385594386
O 7.599938605835746 2.9087947059203643 20.36667076450268
H 8.071563291934476 2.403630482262619 21.045895778396122
H 7.679907758794036 3.828470874768998 20.66122572257848
O 22.384684052723347 3.334363841682636 -6.072329244011456
H 22.322634864450585 3.819932181203164 -6.9085951364105
H 22.149498607944928 3.9927555701971347 -5.401382090587235
O 11.604968281878296 10.865455311165052 1.5143305036610348
H 11.229459817145925 11.245795191159106 2.3226016991767775
H 10.887078552088191 10.322257701157229 1.155816017700312
O -8.858638583284616 -1.5602632122369475 5.744567808744097
H -8.644122486281638 -1.1059860293265897 6.573170513370166
H -9.825778760850145 -1.5206280636225982 5.699502564565965
O 6.832049095730238 -10.534730689705302 12.818546690852179
H 6.806605128117748 -10.588986239255458 13.78569522998934
H 6.235030766825774 -9.800676312231511 12.609512650170554
O 2.998859247707049 15.98294897251256 -5.5561752586180555
H 2.809772048597532 16.135207671384773 -4.618075756086124
H 3.3996146541763697 16.814096311098147 -5.852065694502192
O -8.493474674760815 -11.223718018151079 11.439889274589678
H -7.551022085171057 -11.317861874802121 11.23522514111625
H -8.57777064500144 -11.595323966024203 12.33082426279393
O 4.9431980533187545 5.3474460561477795 9.429646785479278
H 5.616727040590277 5.13852652738501 10.094235899674311
H 5.451725338192196 5.699316530174318 8.68362459120649
O -12.751332967285283 1.6757226245164605 4.156230591102741
H -12.873445248285963 1.4312069609260236 3.2265704177126246
H -11.899923121522233 1.2781787231774235 4.392920399387499
O 11.16547271547725 -0.5736276884697786 12.499946205148177
H 11.751429421553116 -0.9382981058167914 11.819771534775429
H 10.726689110120681 0.1684608157441474 12.057526106278528
O -1.6654789768884841 16.19818948924143 -16.271380658428534
H -1.6955025639523122 16.16859231554248 -15.303294945059692
H -2.331017237527909 15.54970270591129 -16.5461271957519
O -5.11692741836929 -7.969302247123591 14.255552613132046
H -4.588334872220637 -8.142894707101766 15.048914406322778
H -6.0010620970065105 -7.775002289414893 14.601262521531357
O -0.21675675411881024 -12.656848984242512 -3.284510382020574
H -0.9371884333595029 -12.34852612483029 -2.7145256744973736
H 0.323938182514353 -11.86546961815452 -3.427092389053108
O 4.939355108449975 -1.7374176068356126 4.957086105303989
H 5.064050758076639 -1.3698495276674727 5.844955498312234
H 4.039440831324211 -1.4698420532743244 4.717253744556771
O 8.350316922713628 -18.955431364386293 -8.24343823273562
H 9.31165064812031 -19.055044608579582 -8.173566730125476
H 8.024102166590426 -19.212751275470957 -7.368034131450473
O 6.738144519665401 2.45514917093148 -11.635179806541684
H 7.24132454774365 2.8983298512790325 -10.935631308716225
H 6.334067240789915 1.69636881425975 -11.188037919300392