194

C -5.0710522388059704 1.0783507462686561 0.47044029850746183
C -3.8153522388059704 0.1782507462686569 0.19534029850746193
C -4.11845223880597 -1.3219492537313435 0.5608402985074619
C -2.96945223880597 -2.3874492537313436 0.7034402985074619
C -2.52015223880597 0.7359507462686565 0.7384402985074618
C -2.20305223880597 0.7852507462686571 2.097440298507462
C -1.5755522388059702 1.205650746268656 -0.18965970149253808
C -0.9533522388059701 1.2695507462686564 2.508640298507462
H -2.91125223880597 0.4298507462686567 2.840840298507462
C -0.32655223880597006 1.6562507462686575 0.21554029850746192
H -1.7850522388059702 1.178550746268657 -1.2573597014925382
C 0.004447761194029898 1.6956507462686563 1.569740298507462
H -0.7158522388059702 1.2676507462686573 3.5705402985074617
H 0.3943477611940298 1.9193507462686572 -0.5551597014925382
C -1.76045223880597 -2.1592492537313435 -0.1734597014925381
C -0.5287522388059701 -1.936549253731343 0.464840298507462
C -1.8068522388059702 -2.121249253731343 -1.5681597014925381
C 0.6114477611940299 -1.614449253731343 -0.2582597014925381
H -0.4544522388059702 -1.954049253731343 1.5506402985074619
C -0.6479522388059701 -1.8270492537313432 -2.2998597014925384
H -2.74345223880597 -2.290549253731343 -2.092259701492538
C 0.5698477611940298 -1.5506492537313434 -1.6506597014925382
H 1.5072477611940298 -1.351949253731343 0.2991402985074618
H -0.7173522388059701 -1.7640492537313435 -3.3840597014925375
C 1.7791477611940298 -1.082849253731343 -2.4255597014925376
H 1.4739477611940297 -0.9102492537313429 -3.464259701492538
H 2.1252477611940295 -0.1337492537313434 -2.0010597014925384
C 1.3965477611940298 2.0964507462686566 1.997440298507462
H 1.51704776119403 1.8448507462686567 3.057640298507462
H 2.1256477611940294 1.5207507462686571 1.4165402985074618
C 3.94864776119403 -1.4275492537313434 -3.522959701492538
H 4.81734776119403 -2.087049253731343 -3.615159701492538
H 3.4305477611940303 -1.3641492537313429 -4.484459701492538
H 4.26984776119403 -0.441449253731343 -3.176459701492538
C 2.60904776119403 -3.4296492537313434 -2.8992597014925376
H 1.9825477611940296 -3.869549253731343 -2.119359701492538
H 2.06294776119403 -3.373349253731343 -3.845759701492538
H 3.5215477611940305 -4.019849253731343 -3.0234597014925377
C 3.7281477611940304 -2.060049253731343 -1.156659701492538
H 3.9048477611940298 -1.032549253731343 -0.8295597014925382
H 3.12924776119403 -2.623249253731343 -0.4404597014925382
H 4.68244776119403 -2.5769492537313434 -1.3005597014925383
C 3.1110477611940297 3.755250746268656 2.588740298507462
H 3.40124776119403 4.809350746268656 2.534540298507462
H 2.9823477611940303 3.461750746268656 3.634840298507462
H 3.86514776119403 3.1392507462686563 2.091540298507462
C 1.99744776119403 3.9574507462686572 0.40494029850746194
H 2.67914776119403 3.230350746268657 -0.04295970149253803
H 1.03214776119403 3.981150746268657 -0.10175970149253821
H 2.4399477611940297 4.958250746268657 0.368240298507462
C 0.7418477611940297 4.4992507462686575 2.475440298507462
H -0.18475223880597014 4.424250746268656 1.901240298507462
H 0.57844776119403 4.189650746268656 3.511940298507462
H 1.1210477611940297 5.524350746268658 2.4432402985074617
N 3.00114776119403 -2.025349253731343 -2.490159701492538
N 1.7831477611940298 3.586450746268657 1.862540298507462
C -3.55075223880597 -3.8435492537313434 0.6444402985074619
H -2.62515223880597 -2.2736492537313433 1.7424402985074618
H -4.67195223880597 -1.3478492537313436 1.5102402985074619
H -4.83415223880597 -1.6757492537313432 -0.1945597014925382
H -3.7169522388059697 0.17335074626865676 -0.900559701492538
H -3.9132522388059705 -4.043149253731343 -0.34225970149253815
H -4.35435223880597 -3.9354492537313432 1.3449402985074619
H -2.78115223880597 -4.545049253731343 0.8904402985074619
H -5.24235223880597 1.138950746268657 1.5249402985074618
H -5.92805223880597 0.6501507462686567 -0.006059701492538094
H -4.89895223880597 2.059650746268657 0.08004029850746197
C -0.7987730452596111 3.7722593116269576 -1.9977909013937496
O -1.8183012765604754 3.4201198360979634 -1.4247852522464697
O -0.5923504709197234 4.902393727066295 -2.4547563135886765
O 0.184334529415417 3.0529672420546485 -2.209372563328258
O 2.4285593111950483 4.434542071235635 -4.132334421820203
H 2.3889949889400732 4.437582512029866 -3.1641439565581853
H 1.639828053580343 4.929536620854592 -4.400374238655408
O 9.300920771898433 -5.461527747792317 -2.6905276319476625
H 9.481932475434382 -5.518455384953024 -3.640770424190946
H 9.60706213961284 -4.575098675177292 -2.446636454376969
O -3.1881236532045456 -5.24141173569617 -2.5257346268815764
H -2.6754044699560615 -4.420410453689377 -2.4805318507255465
H -4.109704914285977 -4.9440674521687145 -2.490573560670463
O 4.388905615502278 7.590627982696942 3.9883069686884056
H 4.774464567989678 7.345938741130409 4.842964108200159
H 4.113735116508435 6.744368745383613 3.604785855781513
O 3.5913273971758253 -4.137910322567528 1.3860485219962009
H 2.673587313040505 -4.4488070205131995 1.3780649089184547
H 3.912339004508504 -4.378646081468886 2.268068808975971
O -7.454313795475199 -2.6922760496923877 2.3335852946668445
H -7.565996113896026 -2.699469525488284 1.371066375082339
H -7.222037220739233 -1.7734291173886156 2.5354016768682777
O -2.9057198415782843 -4.808790810885023 -5.833899321155945
H -3.2450009830735045 -5.592502481491018 -6.291776686049278
H -3.0904663019525653 -4.985488935082297 -4.899229078458373
O -6.922403914295645 -2.5684777046723717 -2.289904905869032
H -7.448391385265687 -2.3341068769875237 -3.0692474829253986
H -6.9813727905552945 -3.5348463732964475 -2.249702763707149
O -3.8338782966142366 3.183086395938873 -10.607494348465003
H -4.284628614526248 2.862161605942121 -9.812007838857353
H -4.171062483046096 2.612063100885766 -11.314036042370592
O -7.8927880784063875 -6.355823023476773 3.5129932432214686
H -7.633391313920019 -6.782809621847949 4.3432721844727915
H -8.182916931290567 -5.472166124975278 3.7849080805415913
O 1.5278383244698457 -13.359674079113596 -1.4764563558689825
H 0.9908558711652118 -12.75336868508146 -2.0084441103431576
H 2.4392926473303653 -13.145845740152655 -1.7264371613242726
O 8.075655190592496 -6.207223035156904 1.3123237346218213
H 8.428212285145289 -6.692426122176389 2.0734077091786745
H 8.863847458106441 -5.966645536883011 0.8025812888165893
O -0.7261350039772925 -2.87216369438256 9.733566072376252
H -1.3840624546439484 -3.4467673300791697 10.153005565513839
H -0.8614816941761037 -3.0150673874189304 8.784765907816404
O -4.9587100294019075 -2.91334730339755 5.885388728374103
H -5.737707820964218 -3.440562963457506 6.118140625098038
H -4.561483919145523 -2.6922948759202145 6.7411393847787355
O 0.2987383596874009 -5.9389993782997506 2.988524707440818
H 0.7589438949914951 -6.622557678262505 3.4983543581355407
H -0.6307053994914307 -6.044230335205348 3.241551758429944
O -4.3256970030432225 8.707734089295768 5.2301004405228255
H -3.935571790787361 7.902011530447487 5.601019345170858
H -5.181338299727554 8.781522847519726 5.678871133492101
O 8.80853005370258 2.7107798489764288 -7.2682159012176335
H 9.723484362336977 2.8477788283522125 -6.980019354289422
H 8.609422100627405 1.8036232578874891 -6.991837742590533
O -7.292295111434307 2.618326724062542 6.247225143250055
H -7.2117749397269 2.5193123108864848 5.286662805433497
H -7.996702337593328 1.9980920227884111 6.488225805843212
O -0.5353358072002299 2.8734217208150925 -6.808195160088692
H -0.6977493147010927 3.391700808915822 -6.005714009955716
H -0.026711170548094465 3.4726727431750803 -7.374905964195153
O 8.569290392549167 4.277561592281918 -4.552513643659978
H 7.921408834918939 4.775306065710664 -5.073538866997364
H 8.925242190482194 3.6295504582748177 -5.178885603481837
C 15.173207799362384 -0.8105934761339997 6.6420405971220555
O 15.909765314118841 0.08412287005114205 6.342400905784444
O 14.436650284605925 -1.7053098223191423 6.941680288459667
O -1.678667753561946 13.351498259210155 -5.5234283095529175
H -1.161175877928034 12.808884660611653 -6.137219803603528
H -2.0485249738455127 12.709880434641143 -4.89853299984141
O -11.267364968072252 9.614493113104905 6.615049030125248
H -11.765385625707962 9.487880901444568 7.436579388253645
H -10.876343283479303 10.495796282775538 6.7118411248778065
O 3.5445346629699097 16.338074786930925 -9.697164418682815
H 3.4896122828790865 17.216605768731544 -9.292029622495669
H 3.7566697172314045 16.52095624269817 -10.624803915572596
O -0.7730195006676812 -8.620282557921643 -9.657763420679954
H -0.6682641339415847 -9.496425966109728 -10.058221156690445
H 0.13450560947043266 -8.291039822730118 -9.574340761333671
O 7.492732947702073 5.64341840198747 5.118486091072903
H 7.332677538600857 5.452279735626447 4.182101750569937
H 6.883482352644265 6.370463346480963 5.316428773201234
O -11.19926722556187 6.024550697042434 -7.126280515986748
H -11.51099852743906 6.111509906703856 -8.039641916630005
H -10.767935317494134 6.872981245892402 -6.944400519393423
O 7.509031477901087 -0.7686124779213465 -4.994748502776225
H 7.652740464627418 -1.4168403158859242 -4.288975342248097
H 8.264634507698908 -0.1669217334581251 -4.91732593702406
O -22.655325698549778 8.880234323303942 -2.3154367491158014
H -22.079402107706482 8.878883265879065 -1.5361566011240768
H -23.42606500578615 9.396782422990198 -2.035971321394749
O -14.40596589582809 8.732872931109089 13.846060394951746
H -14.287903560843613 9.244147676465946 14.660693304131268
H -15.277230719154236 9.006598250172761 13.522125213722619
O -3.282464987427239 5.188006446388247 -7.142963731430118
H -3.079266435707164 5.476134810946576 -8.04554876953778
H -2.489107805596128 4.704696680390768 -6.867358948401124
O 0.27089510130393624 -3.6432567275673122 -9.293094626895614
H -0.4427291600911778 -3.435482082446601 -9.914816001221158
H 0.24727504710627346 -4.609509094280162 -9.224098966441378
O 15.890272805731286 5.486215110427981 0.333684588885399
H 16.356580534586474 4.937005857859189 0.9816766072025596
H 15.986748812745656 4.999241257391805 -0.49848774352518
O 16.347189455842177 8.76956981296348 9.411745516835499
H 16.728928465832908 8.250206338272113 10.135281463632758
H 15.667910801541645 9.308892699130016 9.8438025484513
O 1.1137111495896446 12.62086085097971 -1.7446060698044357
H 1.6761254863568391 12.04298630241831 -1.2072807709177402
H 1.0777696766646594 13.447416846535104 -1.2401505801570174
O -1.464806846149743 15.769397019059621 16.621234311628527
H -2.328419963782469 16.171231108450893 16.799192465574265
H -1.531815890575742 15.467686262169865 15.702843136016456
O 16.92950968848753 -8.340523151947718 4.6749246064375605
H 17.642314024043305 -8.521728808207603 4.044019030101201
H 16.524877979939774 -9.207874825271173 4.826371625294728
O 4.025084587613516 -8.440472017975331 -0.858151691899137
H 3.157686771942609 -8.008547384907567 -0.8527205208820008
H 4.479042301457261 -8.044382284295375 -1.6170965260044246
O 1.223015533456337 22.599952993289378 3.0456847926226507
H 1.8461451625929604 21.963139683363618 2.6647049631126656
H 1.4414566500678179 22.60506964427156 3.989728882035987
O 17.730710317504222 -6.850473766192281 14.588630926127776
H 16.778685446241866 -6.782496861591609 14.755948414271753
H 17.828623254443265 -7.701673653029037 14.136045294750613
O -8.562354258239846 -9.50325177569039 -4.148818312991929
H -7.972796247131786 -9.42109464132926 -4.913435154103787
H -8.639519701814114 -8.597093008317003 -3.8143280636118737