194

C -5.0710522388059704 1.0783507462686561 0.47044029850746183
C -3.8153522388059704 0.1782507462686569 0.19534029850746193
C -4.11845223880597 -1.3219492537313435 0.5608402985074619
C -2.96945223880597 -2.3874492537313436 0.7034402985074619
C -2.52015223880597 0.7359507462686565 0.7384402985074618
C -2.20305223880597 0.7852507462686571 2.097440298507462
C -1.5755522388059702 1.205650746268656 -0.18965970149253808
C -0.9533522388059701 1.2695507462686564 2.508640298507462
H -2.91125223880597 0.4298507462686567 2.840840298507462
C -0.32655223880597006 1.6562507462686575 0.21554029850746192
H -1.7850522388059702 1.178550746268657 -1.2573597014925382
C 0.004447761194029898 1.6956507462686563 1.569740298507462
H -0.7158522388059702 1.2676507462686573 3.5705402985074617
H 0.3943477611940298 1.9193507462686572 -0.5551597014925382
C -1.76045223880597 -2.1592492537313435 -0.1734597014925381
C -0.5287522388059701 -1.936549253731343 0.464840298507462
C -1.8068522388059702 -2.121249253731343 -1.5681597014925381
C 0.6114477611940299 -1.614449253731343 -0.2582597014925381
H -0.4544522388059702 -1.954049253731343 1.5506402985074619
C -0.6479522388059701 -1.8270492537313432 -2.2998597014925384
H -2.74345223880597 -2.290549253731343 -2.092259701492538
C 0.5698477611940298 -1.5506492537313434 -1.6506597014925382
H 1.5072477611940298 -1.351949253731343 0.2991402985074618
H -0.7173522388059701 -1.7640492537313435 -3.3840597014925375
C 1.7791477611940298 -1.082849253731343 -2.4255597014925376
H 1.4739477611940297 -0.9102492537313429 -3.464259701492538
H 2.1252477611940295 -0.1337492537313434 -2.0010597014925384
C 1.3965477611940298 2.0964507462686566 1.997440298507462
H 1.51704776119403 1.8448507462686567 3.057640298507462
H 2.1256477611940294 1.5207507462686571 1.4165402985074618
C 3.94864776119403 -1.4275492537313434 -3.522959701492538
H 4.81734776119403 -2.087049253731343 -3.615159701492538
H 3.4305477611940303 -1.3641492537313429 -4.484459701492538
H 4.26984776119403 -0.441449253731343 -3.176459701492538
C 2.60904776119403 -3.4296492537313434 -2.8992597014925376
H 1.9825477611940296 -3.869549253731343 -2.119359701492538
H 2.06294776119403 -3.373349253731343 -3.845759701492538
H 3.5215477611940305 -4.019849253731343 -3.0234597014925377
C 3.7281477611940304 -2.060049253731343 -1.156659701492538
H 3.9048477611940298 -1.032549253731343 -0.8295597014925382
H 3.12924776119403 -2.623249253731343 -0.4404597014925382
H 4.68244776119403 -2.5769492537313434 -1.3005597014925383
C 3.1110477611940297 3.755250746268656 2.588740298507462
H 3.40124776119403 4.809350746268656 2.534540298507462
H 2.9823477611940303 3.461750746268656 3.634840298507462
H 3.86514776119403 3.1392507462686563 2.091540298507462
C 1.99744776119403 3.9574507462686572 0.40494029850746194
H 2.67914776119403 3.230350746268657 -0.04295970149253803
H 1.03214776119403 3.981150746268657 -0.10175970149253821
H 2.4399477611940297 4.958250746268657 0.368240298507462
C 0.7418477611940297 4.4992507462686575 2.475440298507462
H -0.18475223880597014 4.424250746268656 1.901240298507462
H 0.57844776119403 4.189650746268656 3.511940298507462
H 1.1210477611940297 5.524350746268658 2.4432402985074617
N 3.00114776119403 -2.025349253731343 -2.490159701492538
N 1.7831477611940298 3.586450746268657 1.862540298507462
C -3.55075223880597 -3.8435492537313434 0.6444402985074619
H -2.62515223880597 -2.2736492537313433 1.7424402985074618
H -4.67195223880597 -1.3478492537313436 1.5102402985074619
H -4.83415223880597 -1.6757492537313432 -0.1945597014925382
H -3.7169522388059697 0.17335074626865676 -0.900559701492538
H -3.9132522388059705 -4.043149253731343 -0.34225970149253815
H -4.35435223880597 -3.9354492537313432 1.3449402985074619
H -2.78115223880597 -4.545049253731343 0.8904402985074619
H -5.24235223880597 1.138950746268657 1.5249402985074618
H -5.92805223880597 0.6501507462686567 -0.006059701492538094
H -4.89895223880597 2.059650746268657 0.08004029850746197
C 1.049201152832424 1.2770929642339974 -4.005864161361489
O -0.09483596022966428 1.4237159102857428 -3.6040479170063495
O 2.065368567569161 1.6716607784944948 -3.4224676501643874
O 1.3678230736317083 0.7114475075528137 -5.058087366447801
O 4.40627409172823 -7.638768040420614 0.5040201085845881
H 4.415205262636822 -7.752302189472206 -0.45826757609465235
H 3.5362550762005096 -7.252930537394389 0.6861142550546537
O 5.180200943854826 -1.7042736970989212 5.026750523944216
H 6.07385332267299 -1.3534525307156708 4.895307410963219
H 4.62126769035739 -1.131802802521312 4.4800946566050985
O 1.6277145682580147 5.722360988615711 -4.839459489470641
H 1.496200087709516 6.199170715086359 -5.672720422821681
H 2.2301059243137473 5.000891412559083 -5.075188675771376
O -2.701682244785753 4.8909558638316195 -9.639246267364735
H -1.911066724038155 4.9390158135554145 -9.081048545687592
H -3.4360903374488103 4.972543069702869 -9.012388846918002
O 7.395516539829829 0.02212989901126239 2.6978590635262933
H 7.163586280818757 -0.7534530006887246 3.2304441530171824
H 7.5317158164380125 -0.3370536941109097 1.8082530564741537
O 1.3204379899384142 -0.9669272853812605 5.7937880489501055
H 1.5194576436928051 -1.886731952707682 6.0246947579994865
H 1.7344619013789966 -0.8486891644436374 4.925706317882932
O 7.545306430265654 5.735998513205726 2.4052241918799533
H 7.208233456937272 5.664273559189736 3.3108757244922318
H 8.481623096849525 5.957168755390391 2.5207956768978623
O -4.1603249845207255 -4.83186590581653 4.439609522021602
H -3.4299333303443666 -4.574170724460455 3.8572963915536524
H -4.101208197472477 -5.798394502556879 4.475520822084712
O 0.4192355050374983 -5.0509535361555455 -6.980083197944339
H 0.6696176900790733 -5.943908539966402 -7.2609879495648135
H -0.5256450639541574 -5.125315602839548 -6.778507064236779
O 3.8515389926537997 -4.7310970115863515 4.7931005906063024
H 3.787325153595332 -5.697939276322986 4.800844936434742
H 3.0016366623360238 -4.4429967308446665 4.427551412715044
O -5.945563415558084 8.270486123684922 -0.7424597179803896
H -6.3528593138557 7.391239622830415 -0.7407279948377443
H -6.244540927889147 8.665293449367532 -1.5753472055846136
O -0.7213539314645159 -7.325458041759448 -3.5458949693921147
H -0.5086624922323515 -7.334028500613461 -2.6005610306104883
H -0.38902324760753926 -6.468534539113758 -3.852815759630568
O 2.415551455287939 9.041411907608675 -1.1057787755481812
H 2.475849047975143 9.30979201914093 -2.034920138824008
H 1.4682491617953914 9.09255288671513 -0.9083834632943413
O 7.344491666346645 0.4015122241583664 -2.232360838543028
H 7.355333777726008 -0.17695592370492497 -1.455042108916337
H 8.005954702333469 0.011650175815431929 -2.823492109569136
O 5.7457519587578485 6.367730987448729 -3.7041456032253057
H 6.690906336636307 6.475323830310885 -3.8887379623359184
H 5.3101218889661395 6.802919625342439 -4.452342927493099
O -8.608809363420725 3.1473542546148483 0.40224456517800755
H -8.349884338707524 3.413443973640585 -0.49280931582920484
H -9.563459235573013 3.3114540603303624 0.42826032316715557
O -3.5036528589279787 -4.179486342620717 8.556565629539525
H -3.3011702151097606 -4.179830568652486 9.504177373536415
H -3.749160881659033 -3.260852914786571 8.370017029061334
O -6.885779852925168 -3.422543914296308 -0.6307723744803573
H -6.832229803195554 -2.6866455753878524 -1.258907219768957
H -6.137433546506404 -3.2750643823057084 -0.03311901540569595
O -6.268865355878232 4.405019011807577 4.945813664652284
H -5.544497631215461 4.389957743936107 4.302360547030661
H -6.651497670871341 5.289754838993401 4.846834010597375
O 5.329462898344768 9.338656219894613 6.485123748891356
H 5.264904532819977 9.416052924296768 7.448871290775876
H 4.632087227991407 9.925406682094081 6.155953559159798
C -12.077123298574037 11.47857239575691 14.81166663770177
O -12.19881892353715 11.55932195690996 15.9997272171919
O -11.955427673610926 11.397822834603863 13.623606058211637
O -6.494885712787007 1.4153032181111378 -16.014268050563032
H -6.62598978187849 2.258407239909853 -15.554970011818591
H -7.097835489144783 1.4648911855126485 -16.771205660263522
O -18.371355619296185 -0.9162301570156117 -3.0886652713927094
H -17.756783845606826 -0.3197844394211682 -2.6353205925361447
H -19.240631887986087 -0.663469209885923 -2.7430750276087403
O -0.7438859284842314 -13.315241871421955 -0.004371984197980128
H -1.3847175309638848 -13.862491030287456 -0.4827239176992064
H 0.11031153214457418 -13.56737699265196 -0.3861265168464178
O 10.235382415578178 2.905536837680581 11.074413181220873
H 9.73407029020805 2.1779161165311485 10.676642397966411
H 9.932453911403867 2.9228650664394165 11.994682705950883
O 4.039295594690575 0.47639457278360675 11.589973143183437
H 3.9837295773547914 -0.4910103219147198 11.587226448595292
H 4.228535527932109 0.7025903992335865 10.666942461102202
O -10.16775285733938 -9.17737416172202 -6.1577428341182845
H -10.163126383221043 -8.535891244307809 -5.431488319982236
H -11.068242994437023 -9.53513145311521 -6.148299437225434
O -18.060701260701975 8.817795093785366 6.56588997311134
H -18.830952170891624 8.354679984608904 6.928112677955318
H -18.345278292252313 9.74278776631336 6.5172441800402545
O 4.820083357890787 -12.853849439110359 2.7030875869970723
H 4.4295376260753 -12.268288595205874 2.037084669325857
H 4.461715264402869 -12.526363746259406 3.541709894622959
O -14.68998547662244 11.696324211889758 -8.165851544304957
H -14.192397945032107 11.822960025339611 -7.344062413166235
H -14.11099163460621 11.138176167488151 -8.706405737460413
O -1.7055770808216 -3.2721293761829973 -15.439475627436556
H -1.874727493713426 -3.972976409479938 -14.792043059026993
H -2.245877800493857 -2.530459024815606 -15.128088141297166
O 14.863543137443855 -2.0688000142877154 3.476357775825142
H 14.99590920705159 -2.016111590397192 2.5178847660306394
H 15.754830135471678 -1.963951335497101 3.841838535923965
O -14.362082331994198 8.133960384539076 0.6295165089814323
H -14.896208728486043 8.41436492921902 1.387836784850058
H -13.748435530041942 8.87083559489475 0.4901806876107222
O 14.916015049301294 -8.901740597530948 1.2892921313384258
H 14.885293345489895 -8.459377602027109 0.42770144312052416
H 15.811769676528177 -8.72261625326111 1.6125568237988357
O -10.233262885391145 13.81967918559405 2.428919391220255
H -10.248880279302336 13.795101705347404 3.3974850324507035
H -11.169287305860056 13.798963822301078 2.179137281553691
O 8.802467448444556 -2.7147252601756406 -14.991462183439037
H 8.855089904083435 -3.540064902782304 -14.486474353482272
H 8.117226714505446 -2.204111094718608 -14.534646843410698
O -12.7623139278166 1.9540681287049084 -6.437561062976357
H -12.760864641928082 1.8499409533639684 -5.474169767693941
H -13.676263252363887 2.200300150656301 -6.644993866132671
O 14.833711638358782 -1.445258129421556 15.000054203879994
H 14.610647827950462 -1.4456923296856523 15.943033368472857
H 15.376789051774734 -0.6505536305297905 14.888368811913871
O -6.982004013821655 3.134061007018449 -10.784871489200782
H -6.806540212122629 2.665504126830637 -11.614711390158785
H -7.161981212940615 2.425095571702345 -10.149310191115113
O 10.5039851916059 7.733281641656254 3.5416166217314005
H 9.876989152750388 7.935281134167226 2.830955289460671
H 11.332830314841472 8.137877166890037 3.2444968362081057
O 3.1296497110958246 -7.606903347545337 9.63481079023277
H 3.157307621400448 -7.610594809559593 10.603412240781848
H 2.2187735059132447 -7.862901058067953 9.425689640323537