194

C -5.0710522388059704 1.0783507462686561 0.47044029850746183
C -3.8153522388059704 0.1782507462686569 0.19534029850746193
C -4.11845223880597 -1.3219492537313435 0.5608402985074619
C -2.96945223880597 -2.3874492537313436 0.7034402985074619
C -2.52015223880597 0.7359507462686565 0.7384402985074618
C -2.20305223880597 0.7852507462686571 2.097440298507462
C -1.5755522388059702 1.205650746268656 -0.18965970149253808
C -0.9533522388059701 1.2695507462686564 2.508640298507462
H -2.91125223880597 0.4298507462686567 2.840840298507462
C -0.32655223880597006 1.6562507462686575 0.21554029850746192
H -1.7850522388059702 1.178550746268657 -1.2573597014925382
C 0.004447761194029898 1.6956507462686563 1.569740298507462
H -0.7158522388059702 1.2676507462686573 3.5705402985074617
H 0.3943477611940298 1.9193507462686572 -0.5551597014925382
C -1.76045223880597 -2.1592492537313435 -0.1734597014925381
C -0.5287522388059701 -1.936549253731343 0.464840298507462
C -1.8068522388059702 -2.121249253731343 -1.5681597014925381
C 0.6114477611940299 -1.614449253731343 -0.2582597014925381
H -0.4544522388059702 -1.954049253731343 1.5506402985074619
C -0.6479522388059701 -1.8270492537313432 -2.2998597014925384
H -2.74345223880597 -2.290549253731343 -2.092259701492538
C 0.5698477611940298 -1.5506492537313434 -1.6506597014925382
H 1.5072477611940298 -1.351949253731343 0.2991402985074618
H -0.7173522388059701 -1.7640492537313435 -3.3840597014925375
C 1.7791477611940298 -1.082849253731343 -2.4255597014925376
H 1.4739477611940297 -0.9102492537313429 -3.464259701492538
H 2.1252477611940295 -0.1337492537313434 -2.0010597014925384
C 1.3965477611940298 2.0964507462686566 1.997440298507462
H 1.51704776119403 1.8448507462686567 3.057640298507462
H 2.1256477611940294 1.5207507462686571 1.4165402985074618
C 3.94864776119403 -1.4275492537313434 -3.522959701492538
H 4.81734776119403 -2.087049253731343 -3.615159701492538
H 3.4305477611940303 -1.3641492537313429 -4.484459701492538
H 4.26984776119403 -0.441449253731343 -3.176459701492538
C 2.60904776119403 -3.4296492537313434 -2.8992597014925376
H 1.9825477611940296 -3.869549253731343 -2.119359701492538
H 2.06294776119403 -3.373349253731343 -3.845759701492538
H 3.5215477611940305 -4.019849253731343 -3.0234597014925377
C 3.7281477611940304 -2.060049253731343 -1.156659701492538
H 3.9048477611940298 -1.032549253731343 -0.8295597014925382
H 3.12924776119403 -2.623249253731343 -0.4404597014925382
H 4.68244776119403 -2.5769492537313434 -1.3005597014925383
C 3.1110477611940297 3.755250746268656 2.588740298507462
H 3.40124776119403 4.809350746268656 2.534540298507462
H 2.9823477611940303 3.461750746268656 3.634840298507462
H 3.86514776119403 3.1392507462686563 2.091540298507462
C 1.99744776119403 3.9574507462686572 0.40494029850746194
H 2.67914776119403 3.230350746268657 -0.04295970149253803
H 1.03214776119403 3.981150746268657 -0.10175970149253821
H 2.4399477611940297 4.958250746268657 0.368240298507462
C 0.7418477611940297 4.4992507462686575 2.475440298507462
H -0.18475223880597014 4.424250746268656 1.901240298507462
H 0.57844776119403 4.189650746268656 3.511940298507462
H 1.1210477611940297 5.524350746268658 2.4432402985074617
N 3.00114776119403 -2.025349253731343 -2.490159701492538
N 1.7831477611940298 3.586450746268657 1.862540298507462
C -3.55075223880597 -3.8435492537313434 0.6444402985074619
H -2.62515223880597 -2.2736492537313433 1.7424402985074618
H -4.67195223880597 -1.3478492537313436 1.5102402985074619
H -4.83415223880597 -1.6757492537313432 -0.1945597014925382
H -3.7169522388059697 0.17335074626865676 -0.900559701492538
H -3.9132522388059705 -4.043149253731343 -0.34225970149253815
H -4.35435223880597 -3.9354492537313432 1.3449402985074619
H -2.78115223880597 -4.545049253731343 0.8904402985074619
H -5.24235223880597 1.138950746268657 1.5249402985074618
H -5.92805223880597 0.6501507462686567 -0.006059701492538094
H -4.89895223880597 2.059650746268657 0.08004029850746197
C 1.5748813769183785 3.351366547117545 -2.904157036590539
O 2.504772954743593 3.922118989357122 -2.3552319034737454
O 1.227891183149993 2.1844520764888453 -2.6884259823449352
O 0.8369268267778178 3.852372834603568 -3.760348701012891
O 6.930774518965253 1.6538923040701627 7.818443768665041
H 6.236637747582722 0.9850897092725024 7.719223867906422
H 6.987428899786124 1.792173979156182 8.775851938553522
O 5.9804239501120025 -0.3244243639535724 -4.962977905684365
H 5.430446742957543 0.4656528415774347 -5.073749913930567
H 5.854427687972702 -0.8150150929115246 -5.789057576713395
O -0.9759823521062825 1.6575699981285827 6.899452512071196
H -0.7566003626457678 1.2249553464283713 7.738310940374001
H -1.1732391170697019 2.571980487320297 7.152247231621141
O -6.958935838232565 5.247735000957951 1.019608180819663
H -6.576596171755545 5.592995943296892 1.8403265356975524
H -7.810778601155601 4.87756012685513 1.2958262362371347
O -5.914250293324111 3.1347268412203655 7.567291627931316
H -5.869464185584185 3.29639236296717 8.521663578761723
H -5.450231288192178 3.8919239023824055 7.179605004814217
O 7.216354352402107 -5.7943833624390635 -0.8275603460177363
H 7.784569567287317 -5.046530430608623 -1.0659189389519366
H 7.208298615372659 -6.345540521029946 -1.6245062889366633
O -0.966115621620673 -8.25064111572643 -1.3890260143194455
H -1.8235455926359825 -8.120629133945624 -1.82131999565404
H -0.6814360748596167 -7.353375494290601 -1.1591697450003386
O 7.635023065930772 2.7439417993162123 -0.7694918245059486
H 7.689418792648189 3.332378584039918 -1.5374440445033344
H 7.656425532161586 1.8547444112283586 -1.1539809449722838
O -1.747893382498061 4.599684885138948 -2.693667728362496
H -2.679451563177265 4.439729766564882 -2.9071649717910923
H -1.4465461636408536 3.759424759095378 -2.316686669729213
O -8.26200925164621 -4.313860413677119 0.07717689852767656
H -8.298163243653585 -4.477795041362628 -0.8771740241457104
H -9.00176087009833 -3.7092581491989787 0.23899651750317114
O -5.575514211883063 -3.7299745522675205 -3.482575090720152
H -5.293048634643813 -3.941004832553335 -4.3851529407571395
H -4.796493585285782 -3.312778120115621 -3.0850377407318708
O -4.667218289720336 4.099581458203967 -8.04224782758494
H -4.381741234119311 3.812820144207802 -8.922723924035356
H -4.021021047883131 4.77845718214008 -7.7962420951472415
O 0.29126953515490217 -1.4712338573860189 -6.62133655778168
H -0.12914940766908445 -2.2662465954416087 -6.982127377709401
H 0.5987713138807167 -1.74644279925341 -5.744601341940152
O 1.2632086812690755 3.4078232252772875 7.999731839847606
H 0.35426239834370604 3.4376339333388897 8.334239438178379
H 1.3158167882730907 4.164884761166165 7.397193739595824
O 2.1252206271251657 7.726968169263079 -0.5094228896977298
H 2.3666792630625 7.492178994453161 -1.4180147273362593
H 2.585536094919797 8.565392881856326 -0.3541308560258756
O -3.2737529311482367 9.094516609283346 2.2786415995600255
H -3.307285114838031 9.136653505566517 1.3111358210095223
H -3.6836963859971004 9.92505694879764 2.563441621621228
O 1.0884748230070889 -3.613682972484983 7.4137801480776035
H 1.5775351831551259 -4.402878290895815 7.691193324459509
H 1.7574852889559955 -3.0651280061940893 6.9773464306491455
O -1.6568512515758316 0.5879572196274108 -8.591037678186343
H -0.8721756166227259 0.5138551005153119 -8.027335291501632
H -2.0850397915962287 1.4034789722965884 -8.290137712386091
O 2.719099773383898 -5.3484016335253735 0.7109954562896483
H 2.802050759875379 -5.544357351035741 -0.23435519162629226
H 3.196799167036026 -4.512347542175574 0.8195255900850608
O -6.060594221988875 -5.785219182365012 1.5988854988299595
H -6.184120091418091 -5.727285493924784 2.5582354893055257
H -5.8936433702668385 -6.726549566607083 1.440814422690258
C 4.310968249490084 -11.139349995087906 -7.831375003077267
O 4.709476239413468 -11.826078952174633 -8.727150074602369
O 3.912460259566699 -10.452621038001181 -6.935599931552166
O 12.399178584903463 -11.350453220241695 10.434523799935517
H 12.059144448284984 -11.938754584145249 11.125353480872393
H 11.642370129592607 -10.787148272661604 10.213411967819312
O -4.913361449835053 17.835922180854922 -1.9826642105358996
H -4.335803983767992 18.58808248709419 -1.7835421273601497
H -5.779593583098429 18.240992097584904 -2.1392598623348684
O -0.40590586260107564 -6.773898513794518 11.771520045098804
H 0.13984255632395204 -7.019355555377845 11.009367264563304
H -0.8228099873603014 -5.9415598758901 11.502512076982317
O -10.816874857996371 3.0230423693135267 1.2370682909304929
H -10.713748519611999 2.8650786609779058 2.1875312213387716
H -10.754584212301403 2.139186473940319 0.8447921433342749
O -3.67046219932162 -18.72786121808219 -3.9914140672509273
H -3.765036815531386 -18.55249614515087 -4.9397125909577655
H -3.7384234692832266 -17.85157167287916 -3.583419161580441
O -11.117466247915784 -5.690962875798301 0.28990329890607514
H -11.384060991133627 -5.474810968620016 1.1960892361241513
H -11.086340386729525 -6.659410423482869 0.2797804312707408
O -3.1722000945089253 -20.284329738245987 -0.018214842436326206
H -3.34828947480775 -20.785691215350635 -0.8285213007108629
H -3.576139369824862 -19.41958481968442 -0.18558040633521578
O 20.518261228212094 4.168142479693883 -7.669223945297905
H 20.93460745257624 4.787366773482774 -8.287434631342212
H 21.00844562160443 3.3424501834882046 -7.799275614880333
O -17.309457928132723 16.293407769608898 -1.3122300245876524
H -16.91151407990752 15.876754963011937 -2.0913375199402484
H -16.882129818198734 17.161933311246933 -1.267329976897222
O 0.46492601053395055 13.888451314012839 6.110746439920566
H -0.0577455842647312 13.136702560737502 6.428009064318057
H 1.1315369317790642 14.018369863768857 6.80191428813548
O 6.78714001467882 10.333631987314487 -8.305198283116077
H 6.761611121207257 10.40962975801107 -7.33951719116736
H 7.46252328790147 10.974938891790826 -8.5726769417452
O -16.63449365849175 -8.285443690826291 2.0758937966706483
H -16.8700685647573 -8.154385463636169 3.0066437961462116
H -15.828659556422242 -7.759471054607692 1.9621127341378672
O 1.847383335731731 -9.600031424678592 2.933278530817586
H 2.251665311202518 -10.044237814353677 2.1728811843063918
H 0.9283228383664817 -9.906896870265086 2.9221724609572393
O -10.912880916685747 9.954322813795997 11.501063671111222
H -10.63537426285634 10.292303871753429 10.636352032215122
H -10.493245062947713 10.55674416546088 12.133484582858937
O 2.536090147853204 6.468935597016217 -3.4120996205068224
H 2.6844577846066473 5.99350690724631 -4.243316777577024
H 2.8188633633264986 7.375029020995472 -3.607025144572922
O 8.353789852080656 0.6180433078688895 -10.61877468104727
H 8.00407261956958 1.1382908314816194 -11.357698038615304
H 7.646943173678028 -0.015261764903403752 -10.423187354433168
O -17.1889676418067 6.378218381379002 -2.9066601403797527
H -16.935123489317895 5.510493425954933 -2.557971303619036
H -17.207929305558128 6.248255578608312 -3.8667185081385913
O 11.031589964422587 15.402180862253477 9.98388429887193
H 11.254876781829344 15.340097088044491 9.043003881894123
H 10.613061550407723 14.55092792662555 10.18178414866227
O 10.126214792736263 2.495750049155033 -2.425193562066689
H 10.830150052911076 2.2232633158298003 -1.8175806206768885
H 10.51805439614581 2.380834689332065 -3.303952988517756
O 11.957612982252176 -1.359805094930206 12.708703317823334
H 12.643045398587903 -0.8515535760000477 13.167865765156904
H 12.420542275838852 -1.7441593944536642 11.949144112838516