194

C -5.0710522388059704 1.0783507462686561 0.47044029850746183
C -3.8153522388059704 0.1782507462686569 0.19534029850746193
C -4.11845223880597 -1.3219492537313435 0.5608402985074619
C -2.96945223880597 -2.3874492537313436 0.7034402985074619
C -2.52015223880597 0.7359507462686565 0.7384402985074618
C -2.20305223880597 0.7852507462686571 2.097440298507462
C -1.5755522388059702 1.205650746268656 -0.18965970149253808
C -0.9533522388059701 1.2695507462686564 2.508640298507462
H -2.91125223880597 0.4298507462686567 2.840840298507462
C -0.32655223880597006 1.6562507462686575 0.21554029850746192
H -1.7850522388059702 1.178550746268657 -1.2573597014925382
C 0.004447761194029898 1.6956507462686563 1.569740298507462
H -0.7158522388059702 1.2676507462686573 3.5705402985074617
H 0.3943477611940298 1.9193507462686572 -0.5551597014925382
C -1.76045223880597 -2.1592492537313435 -0.1734597014925381
C -0.5287522388059701 -1.936549253731343 0.464840298507462
C -1.8068522388059702 -2.121249253731343 -1.5681597014925381
C 0.6114477611940299 -1.614449253731343 -0.2582597014925381
H -0.4544522388059702 -1.954049253731343 1.5506402985074619
C -0.6479522388059701 -1.8270492537313432 -2.2998597014925384
H -2.74345223880597 -2.290549253731343 -2.092259701492538
C 0.5698477611940298 -1.5506492537313434 -1.6506597014925382
H 1.5072477611940298 -1.351949253731343 0.2991402985074618
H -0.7173522388059701 -1.7640492537313435 -3.3840597014925375
C 1.7791477611940298 -1.082849253731343 -2.4255597014925376
H 1.4739477611940297 -0.9102492537313429 -3.464259701492538
H 2.1252477611940295 -0.1337492537313434 -2.0010597014925384
C 1.3965477611940298 2.0964507462686566 1.997440298507462
H 1.51704776119403 1.8448507462686567 3.057640298507462
H 2.1256477611940294 1.5207507462686571 1.4165402985074618
C 3.94864776119403 -1.4275492537313434 -3.522959701492538
H 4.81734776119403 -2.087049253731343 -3.615159701492538
H 3.4305477611940303 -1.3641492537313429 -4.484459701492538
H 4.26984776119403 -0.441449253731343 -3.176459701492538
C 2.60904776119403 -3.4296492537313434 -2.8992597014925376
H 1.9825477611940296 -3.869549253731343 -2.119359701492538
H 2.06294776119403 -3.373349253731343 -3.845759701492538
H 3.5215477611940305 -4.019849253731343 -3.0234597014925377
C 3.7281477611940304 -2.060049253731343 -1.156659701492538
H 3.9048477611940298 -1.032549253731343 -0.8295597014925382
H 3.12924776119403 -2.623249253731343 -0.4404597014925382
H 4.68244776119403 -2.5769492537313434 -1.3005597014925383
C 3.1110477611940297 3.755250746268656 2.588740298507462
H 3.40124776119403 4.809350746268656 2.534540298507462
H 2.9823477611940303 3.461750746268656 3.634840298507462
H 3.86514776119403 3.1392507462686563 2.091540298507462
C 1.99744776119403 3.9574507462686572 0.40494029850746194
H 2.67914776119403 3.230350746268657 -0.04295970149253803
H 1.03214776119403 3.981150746268657 -0.10175970149253821
H 2.4399477611940297 4.958250746268657 0.368240298507462
C 0.7418477611940297 4.4992507462686575 2.475440298507462
H -0.18475223880597014 4.424250746268656 1.901240298507462
H 0.57844776119403 4.189650746268656 3.511940298507462
H 1.1210477611940297 5.524350746268658 2.4432402985074617
N 3.00114776119403 -2.025349253731343 -2.490159701492538
N 1.7831477611940298 3.586450746268657 1.862540298507462
C -3.55075223880597 -3.8435492537313434 0.6444402985074619
H -2.62515223880597 -2.2736492537313433 1.7424402985074618
H -4.67195223880597 -1.3478492537313436 1.5102402985074619
H -4.83415223880597 -1.6757492537313432 -0.1945597014925382
H -3.7169522388059697 0.17335074626865676 -0.900559701492538
H -3.9132522388059705 -4.043149253731343 -0.34225970149253815
H -4.35435223880597 -3.9354492537313432 1.3449402985074619
H -2.78115223880597 -4.545049253731343 0.8904402985074619
H -5.24235223880597 1.138950746268657 1.5249402985074618
H -5.92805223880597 0.6501507462686567 -0.006059701492538094
H -4.89895223880597 2.059650746268657 0.08004029850746197
C -1.5342881951545404 1.9380622819087525 -3.96295489544523
O -2.255144826595409 1.031399666713728 -3.575522168748786
O -1.928863894954312 3.0297488524542047 -4.388586088989865
O -0.2986485550538905 1.9042076447856584 -3.989354284779095
O 6.777368885923595 -3.0693256897980534 6.050399624050043
H 6.359805021590129 -3.7388546995896563 5.487959688456579
H 6.134110201901688 -2.9261825541509934 6.760815173181345
O -0.7000223467120859 3.7897179137976926 9.637855484040818
H -0.1468158273063226 4.409757509352683 10.136333972775255
H -1.582102616730169 4.189990041052347 9.663904777464206
O 2.983893746704412 10.545908834556432 6.8341097770605055
H 2.9703605114570513 10.59071079021583 7.8019821825008275
H 3.4870441631390374 11.330955346552045 6.570474466934592
O -7.570948748452603 1.4790952872009404 5.155851400398875
H -7.543320078567239 1.5292842518618415 4.188543237853644
H -7.23870430585544 2.3423451388883256 5.444599159221357
O 7.165367358638171 -6.489286598845332 1.2199787718590827
H 7.818358384252355 -7.03910570902108 0.7614277676590195
H 7.694230685358345 -5.96753217389633 1.8421024299822928
O 0.7230418064999395 9.000372192408424 -5.640558107210574
H 1.5375119880811967 8.59903385040356 -5.978985670289858
H 1.0308546041599609 9.61192579583281 -4.9548355568774545
O 1.2932443915223728 -3.7897499319601664 7.516980281135611
H 1.3930073715868037 -4.210226636864492 6.649677539677091
H 1.0152952596836426 -4.5140035280885895 8.097637626654585
O -5.451608589524465 -6.886549712962345 7.235902730194237
H -5.173141064547121 -7.19189982492037 8.112364083341205
H -6.4191460905118625 -6.876250064278244 7.288123853506983
O 10.648461082635944 -0.44503741098425253 -1.765371469235288
H 11.31742925623706 -1.1020894333458338 -2.009771918333369
H 11.05329900784701 0.40182416286781875 -2.0059825108430918
O -8.0943668731611 -4.179847172730717 -0.257773838726286
H -8.863387391429855 -3.84392546346974 -0.742264710290278
H -8.479829144796737 -4.728394941032976 0.4418518664447757
O 1.6694073312566773 -6.402111831820202 1.429410626281109
H 1.2063235200326508 -6.400940591630109 2.2805976614729335
H 1.625738892224603 -5.479023072972625 1.1379279423670527
O 6.556672212373568 4.432609825388641 -0.6899210959722075
H 5.792136110246467 4.656004755951392 -0.1380636773909556
H 6.263158867532989 3.659113513839153 -1.1944162066718373
O -0.7317167663293889 -10.688512640541473 0.016111802157059874
H -1.3334171777606922 -10.009087765179968 -0.32345529065878775
H -1.2595584467002015 -11.158454713643545 0.6790594265527148
O -4.776048133192015 1.6666946687811328 4.65275165113442
H -5.348918780135289 1.005064339507866 5.068722667139793
H -3.9033740323839488 1.4959600151986296 5.0377861121179714
O 6.0850435500951825 1.008656455136443 7.9303880925799835
H 5.834899192557024 1.1106310268599988 8.860977338173129
H 7.03476621334411 1.2007473295399258 7.920906363714912
O 4.4913000329354835 3.6366610012124783 -6.231444904118019
H 4.5167071563897165 3.6741547533202237 -5.263500663197775
H 4.94047321867042 4.449161167278158 -6.509021692881005
O 4.407781421566113 -3.494137228198566 2.3280219329274434
H 4.190628542799777 -3.17209767704378 3.2157733123324648
H 4.539591783036963 -4.446324689312609 2.450198083653001
O -4.130434959639388 2.938680258895002 -6.264242720671087
H -3.368918063429173 3.206825180284633 -6.800113670452197
H -4.699450145186108 2.46282096012889 -6.887734172653433
O -4.334562725098836 8.045778564438631 -3.213875867367632
H -4.744877004923682 8.760839724872053 -2.7046636468628344
H -3.9855625217446753 8.489650597056535 -4.001364547297956
O -1.4478273147586245 8.57446959522107 8.001833459312897
H -1.6269475761706107 8.464459322717547 7.055904799848873
H -1.764649786967391 7.748679917333619 8.397632490764547
C -18.233507780856137 1.4672447326022189 -5.512384865020746
O -18.088104772062785 1.925765059443644 -6.60848492076706
O -18.37891078964949 1.0087244057607938 -4.416284809274432
O 11.281754102506628 8.351450387045979 -10.1386829660758
H 11.263237354807611 7.965881368624753 -9.249885453147042
H 12.138581974138589 8.07413014874396 -10.496316057557495
O -13.42012673045501 -2.5865995331532745 -6.203894439000608
H -13.051349445361708 -1.9565073651249922 -5.5667488271593015
H -14.283882018074465 -2.818296149765451 -5.83079200633647
O -10.808456304068999 -10.898132752255183 -3.159472475044706
H -10.878942139860253 -11.527895814703234 -3.8925465429456674
H -11.196361559373402 -11.370112464990527 -2.40732447898709
O -13.191382506759801 -5.331235023760619 9.802527845667704
H -12.496480840816492 -4.689363215546793 9.592576390827482
H -14.012459249097443 -4.870873680391143 9.572609684090027
O 9.599612894857644 8.900267590841613 1.9030188027469297
H 9.18634023687707 8.332574692856927 1.2352629786289961
H 9.086216572195482 8.728264923954884 2.7066364000908534
O 9.38227103423595 -3.087862474226725 23.945139389801927
H 8.636363050224151 -3.5974885507101177 23.594611361741975
H 9.67998241655362 -3.6041108093035596 24.709218923403565
O -13.795301733723367 -15.882733446334942 -3.888499260406288
H -13.543789417029084 -16.38959945767032 -4.675134981692856
H -13.328237443113242 -15.040267377028497 -3.9936839304119944
O 0.001984489986304183 -7.105604103515873 -3.1809638794777815
H 0.7632378884384206 -7.360660409870895 -2.638371121662459
H -0.4874488108954955 -7.933209437316965 -3.301323340061183
O -2.0140246234846853 -1.0463211921079734 10.872028402997648
H -1.4705446651827754 -1.83622880917303 11.012181349191295
H -2.279309092459141 -0.7830908993831147 11.766061907858024
O -2.599834755204399 11.654782667257772 9.125161827310071
H -2.3635619790633133 11.16550803088347 9.927503937856056
H -1.8920447470412058 12.310253815072734 9.033768047289318
O 16.625309930410566 3.8162634885825932 -11.694619882100241
H 17.4518762676262 3.318462661458935 -11.605458323135974
H 16.32883642860746 3.943260546822855 -10.780870926299512
O 6.299473036512286 3.941658238917712 7.92885666031393
H 7.10990632090457 3.4234183480193856 7.81226907979685
H 6.263536032532647 4.108514136868429 8.882706536009279
O -14.971332856290068 10.184124839085705 11.46285444023717
H -14.756715074523544 10.077424372743172 10.523960636267887
H -15.700711764375102 10.822061259355417 11.465194618466642
O -10.24813341768411 -9.30103529698459 0.5805417075778494
H -10.847132871837251 -9.017880426851704 -0.1265582360965003
H -9.787155412142008 -8.488005729154965 0.8363622394770549
O -3.5197602545012425 14.871375009626513 -3.3047397109606824
H -4.4111480720268315 14.49538649217735 -3.2497147128839234
H -3.540767776299702 15.406181007208264 -4.112516396238535
O -7.115931641379272 -14.036767403748689 -3.5339499918533104
H -7.356169089477092 -14.970799010924258 -3.6279621305827003
H -6.737266054620374 -13.980940999262597 -2.6437490424791292
O -13.472559379740318 -16.863832811311312 13.250416276032828
H -13.472823918825826 -16.8629978554501 12.28141339174002
H -13.804579848952335 -17.743749400126784 13.483806826508992
O 11.085633620454894 3.7024761703668045 -1.0151989579472511
H 11.31425248782135 4.179492865414915 -1.8270830894767807
H 10.226949049876833 3.2999342571700843 -1.214153125209696
O -0.9476104961925866 -13.988492095452422 11.936359358124314
H -0.22120311216164623 -13.546923348174392 12.401457961382416
H -1.182010453475547 -14.72804442447581 12.516946093213766
O -15.213191454080906 3.2554370949541642 -15.73807378892306
H -15.999469889418565 3.5462948568982675 -15.252136198959253
H -14.600980307580635 4.002622646625566 -15.661436932422271