194

C -5.0710522388059704 1.0783507462686561 0.47044029850746183
C -3.8153522388059704 0.1782507462686569 0.19534029850746193
C -4.11845223880597 -1.3219492537313435 0.5608402985074619
C -2.96945223880597 -2.3874492537313436 0.7034402985074619
C -2.52015223880597 0.7359507462686565 0.7384402985074618
C -2.20305223880597 0.7852507462686571 2.097440298507462
C -1.5755522388059702 1.205650746268656 -0.18965970149253808
C -0.9533522388059701 1.2695507462686564 2.508640298507462
H -2.91125223880597 0.4298507462686567 2.840840298507462
C -0.32655223880597006 1.6562507462686575 0.21554029850746192
H -1.7850522388059702 1.178550746268657 -1.2573597014925382
C 0.004447761194029898 1.6956507462686563 1.569740298507462
H -0.7158522388059702 1.2676507462686573 3.5705402985074617
H 0.3943477611940298 1.9193507462686572 -0.5551597014925382
C -1.76045223880597 -2.1592492537313435 -0.1734597014925381
C -0.5287522388059701 -1.936549253731343 0.464840298507462
C -1.8068522388059702 -2.121249253731343 -1.5681597014925381
C 0.6114477611940299 -1.614449253731343 -0.2582597014925381
H -0.4544522388059702 -1.954049253731343 1.5506402985074619
C -0.6479522388059701 -1.8270492537313432 -2.2998597014925384
H -2.74345223880597 -2.290549253731343 -2.092259701492538
C 0.5698477611940298 -1.5506492537313434 -1.6506597014925382
H 1.5072477611940298 -1.351949253731343 0.2991402985074618
H -0.7173522388059701 -1.7640492537313435 -3.3840597014925375
C 1.7791477611940298 -1.082849253731343 -2.4255597014925376
H 1.4739477611940297 -0.9102492537313429 -3.464259701492538
H 2.1252477611940295 -0.1337492537313434 -2.0010597014925384
C 1.3965477611940298 2.0964507462686566 1.997440298507462
H 1.51704776119403 1.8448507462686567 3.057640298507462
H 2.1256477611940294 1.5207507462686571 1.4165402985074618
C 3.94864776119403 -1.4275492537313434 -3.522959701492538
H 4.81734776119403 -2.087049253731343 -3.615159701492538
H 3.4305477611940303 -1.3641492537313429 -4.484459701492538
H 4.26984776119403 -0.441449253731343 -3.176459701492538
C 2.60904776119403 -3.4296492537313434 -2.8992597014925376
H 1.9825477611940296 -3.869549253731343 -2.119359701492538
H 2.06294776119403 -3.373349253731343 -3.845759701492538
H 3.5215477611940305 -4.019849253731343 -3.0234597014925377
C 3.7281477611940304 -2.060049253731343 -1.156659701492538
H 3.9048477611940298 -1.032549253731343 -0.8295597014925382
H 3.12924776119403 -2.623249253731343 -0.4404597014925382
H 4.68244776119403 -2.5769492537313434 -1.3005597014925383
C 3.1110477611940297 3.755250746268656 2.588740298507462
H 3.40124776119403 4.809350746268656 2.534540298507462
H 2.9823477611940303 3.461750746268656 3.634840298507462
H 3.86514776119403 3.1392507462686563 2.091540298507462
C 1.99744776119403 3.9574507462686572 0.40494029850746194
H 2.67914776119403 3.230350746268657 -0.04295970149253803
H 1.03214776119403 3.981150746268657 -0.10175970149253821
H 2.4399477611940297 4.958250746268657 0.368240298507462
C 0.7418477611940297 4.4992507462686575 2.475440298507462
H -0.18475223880597014 4.424250746268656 1.901240298507462
H 0.57844776119403 4.189650746268656 3.511940298507462
H 1.1210477611940297 5.524350746268658 2.4432402985074617
N 3.00114776119403 -2.025349253731343 -2.490159701492538
N 1.7831477611940298 3.586450746268657 1.862540298507462
C -3.55075223880597 -3.8435492537313434 0.6444402985074619
H -2.62515223880597 -2.2736492537313433 1.7424402985074618
H -4.67195223880597 -1.3478492537313436 1.5102402985074619
H -4.83415223880597 -1.6757492537313432 -0.1945597014925382
H -3.7169522388059697 0.17335074626865676 -0.900559701492538
H -3.9132522388059705 -4.043149253731343 -0.34225970149253815
H -4.35435223880597 -3.9354492537313432 1.3449402985074619
H -2.78115223880597 -4.545049253731343 0.8904402985074619
H -5.24235223880597 1.138950746268657 1.5249402985074618
H -5.92805223880597 0.6501507462686567 -0.006059701492538094
H -4.89895223880597 2.059650746268657 0.08004029850746197
C 2.6217166972051413 -4.173061172806291 1.7669915634472075
O 2.632563038527733 -4.95524037742129 2.704996652637965
O 3.5225875850223125 -3.3699655385108214 1.4984761825859616
O 1.7081782117431024 -4.063561656900427 0.9410946715798838
O 7.831624028167214 -0.6066690214924271 -4.901384423110114
H 8.118084181291325 -1.4120162422447855 -5.357809435131327
H 8.636866748194546 -0.07060806411241671 -4.844950779635584
O -1.9291747809774402 4.665945381478534 -1.980174195572424
H -2.370568736696954 4.9451431815009625 -2.79637718577579
H -1.2067920590521262 5.303173150725994 -1.8749795309563924
O 1.725930244785225 9.536902799274856 -3.435192561894726
H 1.494891699526958 9.402623828844995 -4.366620339881426
H 0.8897934387672493 9.400993884762505 -2.964697128465102
O -0.7908662054217608 -8.836620273622112 -3.207944970679863
H -0.7977838375836606 -8.787645446708781 -2.2402048353159922
H -0.8620447660935211 -7.9121929316172 -3.489600160858262
O 1.0658151624094836 -3.513952501794061 -9.901243726826666
H 1.8606743124663923 -3.9022197764754765 -9.50575060187722
H 0.9325748574814481 -4.028120167449439 -10.711700744216966
O -9.206554655115534 -5.730677978957432 -1.8603528609309543
H -10.013087544646584 -5.809166776013644 -1.329022865785412
H -9.525455755949572 -5.755971882868556 -2.775024523666699
O 9.875463921473651 -8.941076944841743 -1.9743016196627101
H 10.812186403452985 -8.854126630314976 -1.742013024466622
H 9.763435406762301 -9.88844773427833 -2.144302041761808
O -6.383730173479643 5.659101070411469 -2.6532387058808764
H -6.755650648313854 6.45801260476858 -2.2502711171466667
H -7.157276222390781 5.190669964627308 -3.0013202389270766
O 5.840116089678294 6.059638690262108 5.079414121648642
H 5.845360705671791 5.731994971964969 5.9913293834814
H 5.085836590690731 6.667378367709656 5.053397469999737
O -2.366559548581947 3.166972877947535 0.3983426205392705
H -2.283816743984413 4.115636392581024 0.21901464951809743
H -3.0250306315716013 2.8637804897729198 -0.2446598311818755
O 7.004212658378024 3.767315145098715 -5.509234046916566
H 7.376982525354415 3.543575315884895 -4.643237238609643
H 6.966683664326824 4.735578540083541 -5.504816260371136
O -3.6389285104773847 7.951198433204743 0.28458318306206687
H -4.217706939414496 7.2588902108219 -0.06853466174076761
H -2.773764289458984 7.520288619975764 0.3536450961009394
O -0.4151153239565257 4.0257461777816195 8.15924456040739
H -0.7662539967385784 3.825448597030661 7.278591468365938
H -1.1797244181143716 3.9216416240879846 8.745330833349664
O 2.903269687723295 -5.711984425556849 -5.537013382006661
H 3.805521588246315 -5.379245810332478 -5.656151448304417
H 2.673000547219486 -5.4459408610290385 -4.634151881551042
O 7.526409271499792 -2.0257973460401457 -3.1788908035093733
H 7.573019826511555 -2.1224558347111033 -2.2158477361290285
H 6.755904684486579 -1.4553458018309664 -3.319850589976863
O -6.363199096339239 1.741259014383862 -1.7586905512773432
H -7.250709240511103 1.5011032092204708 -1.452719490328172
H -6.276847187442602 1.2837956501480892 -2.608533220547364
O -3.356944261248208 6.086243642933604 4.3582131310550665
H -2.756235697801073 6.418470299210669 5.042129812793597
H -4.237744124172769 6.195867706052038 4.746975411320886
O -9.370018018936836 0.7914260536376245 -3.2195028513318174
H -8.944244213225847 0.35199128685809544 -2.468116726216505
H -10.056818054536285 0.16690049001267848 -3.4974155638505833
O -6.581835270223078 -4.623706189899969 -3.796951017387416
H -6.72243171067053 -4.582003899013024 -4.754792818922663
H -5.620965879878154 -4.708674608285689 -3.7049057737557938
O -4.974167600616813 4.231749072455796 -4.590355246098927
H -4.262157625798776 4.0833250234601515 -3.9500588660222027
H -4.752713136385839 3.642867241297835 -5.327334250890935
C 10.090365110249257 -5.775298004582523 -10.669136089680816
O 10.34134341758224 -6.1661356071470035 -9.56592526895346
O 9.839386802916275 -5.384460402018043 -11.772346910408167
O -10.383681519370919 -11.624667924136364 4.220571672314192
H -9.608401012334445 -11.453932638098914 4.776230699426124
H -11.134735071618747 -11.415963002815944 4.796178101893081
O -7.746659118045223 11.110861935335393 14.158544571366305
H -8.110236523626128 11.997001447052334 14.305294674688675
H -7.31188797514464 11.176303660086026 13.29503233736925
O 2.0183640322241554 -14.958838713593265 -1.0691347548859362
H 2.5355080243068837 -14.782987136225366 -1.8695132097995868
H 2.580877141676845 -15.556077388459466 -0.5535313111058071
O 11.739644830411526 6.872614562644116 -1.3516828322878593
H 11.752898705885675 5.9091024132742405 -1.453839719973231
H 11.403669566389269 7.008095856507341 -0.4529462828595414
O 15.754268091233435 -8.462026305243548 6.954202029628419
H 15.783947478753301 -7.949994765560388 6.1320644540207
H 14.877921702333502 -8.875312738007331 6.941038616110919
O -2.561980657344577 6.402850640255936 13.166580558619264
H -1.727059105992273 6.737215309441591 12.80592334187762
H -2.9495785867269517 5.901605616409392 12.433448090706698
O -6.69785426599592 0.4140815819816577 9.94457219583904
H -6.481736577183736 0.9454598747613905 9.163612778554777
H -5.974134939095617 0.5997494564533712 10.561597090442273
O -7.064446662633266 10.093620981723909 -2.720046625474837
H -6.462917932168979 10.090232120114296 -1.960363099957127
H -6.504549497706117 9.822896807607442 -3.463138497692194
O 15.681483783552377 -3.22950503097447 -6.349630573327779
H 15.682649818034053 -3.702717998156717 -7.195228282025101
H 16.11487044665748 -2.386869921376681 -6.552371828665066
O 14.432218719927594 1.3091051676887746 -5.760324466851949
H 14.654477137996988 1.6140231137640644 -6.652845390224908
H 14.708449240579956 0.38032785207004594 -5.75472609635772
O 1.4125616054474448 -7.565250413831153 -8.073432192701839
H 1.098913945676878 -7.677102640893791 -7.16344231269131
H 0.6004978882711103 -7.561559139738346 -8.602110580799295
O -8.246484376118696 -13.856823218978503 -5.012588539106941
H -7.486903654668863 -13.256239990652386 -5.048703222479901
H -8.084903300075442 -14.482251717765655 -5.734871512095751
O -0.30811401899279645 7.918661750557656 -15.833660767960971
H -1.0985015575766335 8.078720096824888 -16.37090951997589
H 0.38023164315797864 7.715494557474594 -16.484710140399777
O 1.4799366383336077 -6.549762874189364 -0.7764096781894789
H 1.5530857167100915 -5.683066633285478 -1.2035562516695275
H 1.4994772494948805 -6.346279890364575 0.17078342995120277
O 1.3632915221636652 -5.258620816843678 5.436780433329343
H 1.0888750746295126 -6.019248502038011 5.970735950894846
H 1.578649146312501 -5.643750451663592 4.574076427076649
O -13.470370162464443 -12.687547542235226 -2.9786501192687496
H -14.029773695012787 -12.762325543928071 -3.7663323490640255
H -13.307423664558792 -11.735860492090822 -2.896783510033194
O 10.224976566758592 -0.6494700551838255 4.573606272950078
H 9.804619844575333 -1.2138930874295517 3.9075025094973506
H 10.057033347998365 -1.1093981755040176 5.4098019101733215
O -2.4134456204592927 1.7390600807172323 7.764451156138002
H -2.4615619935597928 1.7232101917240237 8.732129280598071
H -3.297950324948834 1.462319295555237 7.481559109830953
O -9.872664416992333 13.470745739800964 -6.8047619115635065
H -10.13845804597817 13.76775868083527 -5.921526712678921
H -10.330487436067447 14.079285505837456 -7.403960860709111
O 0.44371921374317314 -13.784384332463684 1.5474064271965902
H 0.7757280409265642 -13.528648491175739 0.673715019974877
H 1.1661840913798978 -14.305288829529752 1.9290672056605314