194

C -5.0710522388059704 1.0783507462686561 0.47044029850746183
C -3.8153522388059704 0.1782507462686569 0.19534029850746193
C -4.11845223880597 -1.3219492537313435 0.5608402985074619
C -2.96945223880597 -2.3874492537313436 0.7034402985074619
C -2.52015223880597 0.7359507462686565 0.7384402985074618
C -2.20305223880597 0.7852507462686571 2.097440298507462
C -1.5755522388059702 1.205650746268656 -0.18965970149253808
C -0.9533522388059701 1.2695507462686564 2.508640298507462
H -2.91125223880597 0.4298507462686567 2.840840298507462
C -0.32655223880597006 1.6562507462686575 0.21554029850746192
H -1.7850522388059702 1.178550746268657 -1.2573597014925382
C 0.004447761194029898 1.6956507462686563 1.569740298507462
H -0.7158522388059702 1.2676507462686573 3.5705402985074617
H 0.3943477611940298 1.9193507462686572 -0.5551597014925382
C -1.76045223880597 -2.1592492537313435 -0.1734597014925381
C -0.5287522388059701 -1.936549253731343 0.464840298507462
C -1.8068522388059702 -2.121249253731343 -1.5681597014925381
C 0.6114477611940299 -1.614449253731343 -0.2582597014925381
H -0.4544522388059702 -1.954049253731343 1.5506402985074619
C -0.6479522388059701 -1.8270492537313432 -2.2998597014925384
H -2.74345223880597 -2.290549253731343 -2.092259701492538
C 0.5698477611940298 -1.5506492537313434 -1.6506597014925382
H 1.5072477611940298 -1.351949253731343 0.2991402985074618
H -0.7173522388059701 -1.7640492537313435 -3.3840597014925375
C 1.7791477611940298 -1.082849253731343 -2.4255597014925376
H 1.4739477611940297 -0.9102492537313429 -3.464259701492538
H 2.1252477611940295 -0.1337492537313434 -2.0010597014925384
C 1.3965477611940298 2.0964507462686566 1.997440298507462
H 1.51704776119403 1.8448507462686567 3.057640298507462
H 2.1256477611940294 1.5207507462686571 1.4165402985074618
C 3.94864776119403 -1.4275492537313434 -3.522959701492538
H 4.81734776119403 -2.087049253731343 -3.615159701492538
H 3.4305477611940303 -1.3641492537313429 -4.484459701492538
H 4.26984776119403 -0.441449253731343 -3.176459701492538
C 2.60904776119403 -3.4296492537313434 -2.8992597014925376
H 1.9825477611940296 -3.869549253731343 -2.119359701492538
H 2.06294776119403 -3.373349253731343 -3.845759701492538
H 3.5215477611940305 -4.019849253731343 -3.0234597014925377
C 3.7281477611940304 -2.060049253731343 -1.156659701492538
H 3.9048477611940298 -1.032549253731343 -0.8295597014925382
H 3.12924776119403 -2.623249253731343 -0.4404597014925382
H 4.68244776119403 -2.5769492537313434 -1.3005597014925383
C 3.1110477611940297 3.755250746268656 2.588740298507462
H 3.40124776119403 4.809350746268656 2.534540298507462
H 2.9823477611940303 3.461750746268656 3.634840298507462
H 3.86514776119403 3.1392507462686563 2.091540298507462
C 1.99744776119403 3.9574507462686572 0.40494029850746194
H 2.67914776119403 3.230350746268657 -0.04295970149253803
H 1.03214776119403 3.981150746268657 -0.10175970149253821
H 2.4399477611940297 4.958250746268657 0.368240298507462
C 0.7418477611940297 4.4992507462686575 2.475440298507462
H -0.18475223880597014 4.424250746268656 1.901240298507462
H 0.57844776119403 4.189650746268656 3.511940298507462
H 1.1210477611940297 5.524350746268658 2.4432402985074617
N 3.00114776119403 -2.025349253731343 -2.490159701492538
N 1.7831477611940298 3.586450746268657 1.862540298507462
C -3.55075223880597 -3.8435492537313434 0.6444402985074619
H -2.62515223880597 -2.2736492537313433 1.7424402985074618
H -4.67195223880597 -1.3478492537313436 1.5102402985074619
H -4.83415223880597 -1.6757492537313432 -0.1945597014925382
H -3.7169522388059697 0.17335074626865676 -0.900559701492538
H -3.9132522388059705 -4.043149253731343 -0.34225970149253815
H -4.35435223880597 -3.9354492537313432 1.3449402985074619
H -2.78115223880597 -4.545049253731343 0.8904402985074619
H -5.24235223880597 1.138950746268657 1.5249402985074618
H -5.92805223880597 0.6501507462686567 -0.006059701492538094
H -4.89895223880597 2.059650746268657 0.08004029850746197
C 2.431320621316077 -3.381113286088978 2.2411693734916716
O 2.526813069533925 -3.885832276158896 3.3492828297749897
O 3.195739845869454 -2.526103274017534 1.7793765709375355
O 1.5554749951805427 -3.647255169017596 1.410078932125351
O -9.539142204356015 -1.3940730817112312 -7.0482871014570945
H -8.669270104132703 -1.488090980166052 -7.46476101531392
H -9.624199812546426 -2.189703368689272 -6.501752935981444
O -8.210201446467705 -5.035660043197331 2.174113985299892
H -7.76690779124085 -4.637213495366978 1.4101123880124962
H -7.686216849353563 -4.735067325344386 2.931772288402887
O -7.091866200871671 2.131400916588816 -3.099905709051402
H -7.951182587101649 2.052967387179887 -2.6590078901396836
H -6.688720458916371 2.911322937018546 -2.689836084362961
O -1.1810958024170723 9.17192318745432 -4.237358756614984
H -0.40442172698926315 9.42649895189124 -4.757873806944671
H -1.7140542100937346 8.647232881002655 -4.853489718588502
O -3.5016682018096557 -5.463360713355494 6.555079531948995
H -3.5242579013175206 -5.4951645814884245 7.52329726383988
H -4.339318441785682 -5.039368682162658 6.315215451159315
O 0.19192297343175357 4.044893628475729 -9.303789868823888
H 0.5233926473107989 3.825841698277038 -10.187594974078856
H -0.46753562746644506 3.3579869763150225 -9.124247257673337
O 6.643337260107932 -3.217842315408615 4.902237485571101
H 7.448042119705733 -3.662440112911006 4.596050868790242
H 6.109312620388749 -3.121405092964853 4.099442685762253
O 4.4525675344082565 1.3576231498767584 -12.637128361212582
H 5.142629299556491 1.9541677485562223 -12.964109490586832
H 4.335106323314578 0.7190422345580343 -13.356419138839481
O 6.656239825021701 0.629918722680729 -2.9891557243792337
H 6.593330930395221 0.3538994462997733 -2.062428587114435
H 5.976937460211801 1.3154847280936843 -3.075813059243627
O -5.075974473108647 8.656255696170359 -4.201966042324162
H -4.393836623860194 8.179924504151618 -4.698719408727149
H -5.018847171345051 8.283383145145557 -3.3094054133552016
O 1.8555548664467572 -0.23381799912844148 9.984663410995239
H 2.7434134467897775 0.14100701065777965 9.883763905297558
H 1.2660138335630589 0.48164863330176466 9.702686793657207
O 3.2540920085023615 0.898185670498169 6.447790255957768
H 3.2105382105106264 0.5550526399876354 7.352958829734584
H 2.741584324563774 0.2590574848072018 5.930283753139419
O 4.332464941476346 -6.9600418559653825 2.1746485641131583
H 3.988580976386646 -6.076979367103478 2.3769152598868426
H 3.816739881541564 -7.241188249836644 1.4039694401786567
O 0.13033985448105256 -9.027098758571423 6.885530553896572
H -0.26952729038159795 -9.258776693414099 7.737234116097897
H 0.5706829894336438 -9.84307027129537 6.604016152447704
O -0.6960225910413831 -8.680810611278098 -1.8546602116091377
H -0.6332287287972242 -8.689816038767534 -0.8877356074955618
H -0.7063356387969928 -9.618886914782049 -2.0972883924751606
O 8.360312521118319 -1.2451980686217035 1.4856472671681362
H 8.381264293426275 -1.3420705470422405 0.5217260551067876
H 8.64001765555448 -0.3295444486925563 1.6349972935514503
O 5.962452952009043 3.631621281219216 7.561841033429102
H 6.132841080100989 2.7930385511404534 7.107182647914251
H 5.26419967672471 4.046660454850145 7.033497591900343
O 10.057153803464328 1.8397476652352873 -4.0646767872778495
H 9.784557402002187 1.7247494673125896 -3.1419449880618338
H 10.905082718891638 1.3737754571970164 -4.118047191231763
O 3.020782468979705 -2.088993786322204 8.007720215670409
H 2.9198089144157118 -2.0440885516384935 7.045038950621216
H 2.1882609305971834 -1.7278413516604367 8.3474830025778
O -0.42550595534985725 10.569354025054423 3.4583423281015433
H -0.4958796425584948 10.408854209309993 2.5053183461395636
H 0.4801168349770606 10.893765819714702 3.5748167605997727
C -7.5810585801637025 15.427778741788085 -1.8738180003826503
O -7.432521992491177 14.341682735409027 -1.3930367566240491
O -7.729595167836227 16.51387474816714 -2.3545992441412507
O 3.1962252945498344 1.5642951232244284 -20.53006533803324
H 2.535749233232316 0.8698792847624626 -20.386798549768603
H 3.0875276240937612 1.8017711107531893 -21.46320622561917
O -3.5051082721637448 4.19456401656325 -12.615326664868407
H -3.3502488605181844 4.300400372012641 -11.664650807706785
H -2.860354734995367 3.523011456653787 -12.884161149055073
O 4.303693412974634 8.604091825128533 -8.916054341571325
H 4.944821982587391 8.598888707716194 -9.64261778800632
H 3.792440204471811 7.7917800635567325 -9.049214782798016
O 3.7209499604203913 -6.857040797630737 -9.535192763738596
H 3.665593412850343 -6.8749625195506265 -10.502447549937433
H 2.9574606151155236 -6.32406743799066 -9.266891884463272
O -5.647447456811476 6.07152617632631 -8.390599815431301
H -5.359588146659207 6.996784327004366 -8.391914753637613
H -6.614486779603697 6.127222671682741 -8.41695873950974
O 4.940875817388234 -8.207686107097441 11.776685714063142
H 4.958309401596878 -8.169719127525108 12.744787948077606
H 3.9980922748209666 -8.161692078871353 11.557583716053427
O 11.112696090794437 13.183910430792016 4.085532543395039
H 11.064589526706182 13.073341711731764 5.047004162194575
H 10.288088442610707 12.79017989544904 3.7631035800629142
O 16.0184598990285 -1.3753102705135358 13.559564973590184
H 15.346504653126953 -2.032501057527841 13.323887707251421
H 16.607563574760498 -1.8497399458796302 14.165234261792143
O -2.548729498998025 16.800126157876804 -20.334759333966524
H -3.273730638720142 16.80503465596677 -20.977656379338594
H -2.9516985934131714 17.147534903674288 -19.52489205064804
O -4.084968039436613 0.7277364764785763 5.122066043524663
H -3.669340779985521 1.5038472249452104 4.717253192671657
H -4.762082155051602 0.46380376241996335 4.481115233255587
O -1.3231901700151525 -4.0126268325517795 -15.036064372921478
H -1.8421404438054672 -4.332833814097103 -14.282987046744019
H -0.40730601941755284 -4.049617394592294 -14.721819459988842
O -7.2530350189574495 14.016119932705518 1.8383261940607118
H -7.170279204291516 13.940774234730203 0.8758076966615236
H -7.953352471545772 14.674273056306816 1.9622288808518287
O 4.235719827822971 -21.82329365063761 5.681732417277193
H 5.039098676490996 -21.925449260655522 6.2138170099452275
H 4.521300767793947 -22.042755858319033 4.782153732322458
O -3.7883932181514766 22.34525925825178 -15.637195304449204
H -3.859151656029855 21.411505565122393 -15.886323064717411
H -3.29864499557757 22.328007401312092 -14.801246145577789
O 20.073388184116407 -2.5728513799222448 13.607037177011966
H 20.087428897810806 -2.4305922894492182 14.56543822377514
H 19.491623425628518 -3.339293726582209 13.492678795911612
O 4.672094303486299 -17.634392778952744 10.564191605935966
H 3.9899981625035252 -17.375495662222765 9.926473412448187
H 5.277112928407594 -16.877645491457983 10.579938055302865
O -2.262240084432303 16.100061343214954 -5.604819892593725
H -2.579653233054957 15.471571491174778 -6.2705651560871845
H -2.5139824960048496 15.694706798101821 -4.761448446982859
O 17.899728765607595 0.14449823389667316 -7.8876867243439515
H 17.82520624275147 -0.21059206977191813 -8.78619917652684
H 17.001984493816217 0.06883647984174601 -7.53090602736176
O -8.70641369919299 -8.879561673101941 13.702414743713174
H -8.68755460164646 -8.841663182651239 14.670492940844628
H -7.951763225458722 -8.335131291635562 13.43211830176652
O 1.3158532876599143 -13.395200412154606 -6.908974901788646
H 0.9798461752120975 -13.80814426511747 -6.099318214306434
H 0.5633131038695494 -12.882116144581115 -7.239716115503141