194

C -5.0710522388059704 1.0783507462686561 0.47044029850746183
C -3.8153522388059704 0.1782507462686569 0.19534029850746193
C -4.11845223880597 -1.3219492537313435 0.5608402985074619
C -2.96945223880597 -2.3874492537313436 0.7034402985074619
C -2.52015223880597 0.7359507462686565 0.7384402985074618
C -2.20305223880597 0.7852507462686571 2.097440298507462
C -1.5755522388059702 1.205650746268656 -0.18965970149253808
C -0.9533522388059701 1.2695507462686564 2.508640298507462
H -2.91125223880597 0.4298507462686567 2.840840298507462
C -0.32655223880597006 1.6562507462686575 0.21554029850746192
H -1.7850522388059702 1.178550746268657 -1.2573597014925382
C 0.004447761194029898 1.6956507462686563 1.569740298507462
H -0.7158522388059702 1.2676507462686573 3.5705402985074617
H 0.3943477611940298 1.9193507462686572 -0.5551597014925382
C -1.76045223880597 -2.1592492537313435 -0.1734597014925381
C -0.5287522388059701 -1.936549253731343 0.464840298507462
C -1.8068522388059702 -2.121249253731343 -1.5681597014925381
C 0.6114477611940299 -1.614449253731343 -0.2582597014925381
H -0.4544522388059702 -1.954049253731343 1.5506402985074619
C -0.6479522388059701 -1.8270492537313432 -2.2998597014925384
H -2.74345223880597 -2.290549253731343 -2.092259701492538
C 0.5698477611940298 -1.5506492537313434 -1.6506597014925382
H 1.5072477611940298 -1.351949253731343 0.2991402985074618
H -0.7173522388059701 -1.7640492537313435 -3.3840597014925375
C 1.7791477611940298 -1.082849253731343 -2.4255597014925376
H 1.4739477611940297 -0.9102492537313429 -3.464259701492538
H 2.1252477611940295 -0.1337492537313434 -2.0010597014925384
C 1.3965477611940298 2.0964507462686566 1.997440298507462
H 1.51704776119403 1.8448507462686567 3.057640298507462
H 2.1256477611940294 1.5207507462686571 1.4165402985074618
C 3.94864776119403 -1.4275492537313434 -3.522959701492538
H 4.81734776119403 -2.087049253731343 -3.615159701492538
H 3.4305477611940303 -1.3641492537313429 -4.484459701492538
H 4.26984776119403 -0.441449253731343 -3.176459701492538
C 2.60904776119403 -3.4296492537313434 -2.8992597014925376
H 1.9825477611940296 -3.869549253731343 -2.119359701492538
H 2.06294776119403 -3.373349253731343 -3.845759701492538
H 3.5215477611940305 -4.019849253731343 -3.0234597014925377
C 3.7281477611940304 -2.060049253731343 -1.156659701492538
H 3.9048477611940298 -1.032549253731343 -0.8295597014925382
H 3.12924776119403 -2.623249253731343 -0.4404597014925382
H 4.68244776119403 -2.5769492537313434 -1.3005597014925383
C 3.1110477611940297 3.755250746268656 2.588740298507462
H 3.40124776119403 4.809350746268656 2.534540298507462
H 2.9823477611940303 3.461750746268656 3.634840298507462
H 3.86514776119403 3.1392507462686563 2.091540298507462
C 1.99744776119403 3.9574507462686572 0.40494029850746194
H 2.67914776119403 3.230350746268657 -0.04295970149253803
H 1.03214776119403 3.981150746268657 -0.10175970149253821
H 2.4399477611940297 4.958250746268657 0.368240298507462
C 0.7418477611940297 4.4992507462686575 2.475440298507462
H -0.18475223880597014 4.424250746268656 1.901240298507462
H 0.57844776119403 4.189650746268656 3.511940298507462
H 1.1210477611940297 5.524350746268658 2.4432402985074617
N 3.00114776119403 -2.025349253731343 -2.490159701492538
N 1.7831477611940298 3.586450746268657 1.862540298507462
C -3.55075223880597 -3.8435492537313434 0.6444402985074619
H -2.62515223880597 -2.2736492537313433 1.7424402985074618
H -4.67195223880597 -1.3478492537313436 1.5102402985074619
H -4.83415223880597 -1.6757492537313432 -0.1945597014925382
H -3.7169522388059697 0.17335074626865676 -0.900559701492538
H -3.9132522388059705 -4.043149253731343 -0.34225970149253815
H -4.35435223880597 -3.9354492537313432 1.3449402985074619
H -2.78115223880597 -4.545049253731343 0.8904402985074619
H -5.24235223880597 1.138950746268657 1.5249402985074618
H -5.92805223880597 0.6501507462686567 -0.006059701492538094
H -4.89895223880597 2.059650746268657 0.08004029850746197
C -1.4572573454744746 3.788126823174422 -2.417595577901399
O -2.3385660865629085 3.9333818579125097 -3.250645022030831
O -0.258768870489549 4.032285792670567 -2.5982699729962455
O -1.627496981037618 3.374488330956556 -1.2649594477028623
O -5.96172773614343 5.808268168602888 -3.928953393081125
H -6.835938547366123 6.064736661533038 -3.5988826028322745
H -6.001868902781919 4.841005571343091 -3.9708305823747114
O -0.4173797966388144 -6.036397665030645 -3.7229802781662404
H 0.08416768079472536 -5.496748210345782 -4.352421260974308
H -1.3189837947786422 -6.032854633638665 -4.078029037869511
O 0.4769666222651683 -6.524080377419795 6.485453689104721
H 0.19935787902170166 -6.308404681903678 7.388440254308448
H 0.8642244240734407 -5.699069079169693 6.156288537549602
O 1.3866387466201864 1.7125684883709917 -10.70522895484514
H 1.8804062283573932 2.0070099441958655 -9.925187122652385
H 0.5327490521007531 2.1636994892395434 -10.625761011944574
O 0.49472921848721363 -7.817814495997949 0.6635492871800465
H 0.3761332878007706 -7.7600708661717235 -0.29643406441471376
H -0.3959870149102831 -7.999826651133656 0.9988970339221849
O 7.508872392451721 -2.8061779341798214 0.3101917883768557
H 7.186216431161299 -1.9164146132819637 0.5179939065772512
H 8.155509581956181 -2.9896015969080696 1.0081731988751041
O -10.306923048643029 -0.7232850493605323 0.2497348394472757
H -10.746223913432695 -1.181705965238061 -0.48227087841363026
H -10.364801395831083 0.21324140149316673 0.007804584873460918
O 3.3606265257538155 2.4858402949150613 -4.129224971576089
H 3.682209780156613 2.1175259962094986 -4.965822930428927
H 3.961479013433153 2.1166951782473533 -3.4646423091555762
O 9.51990108016161 -1.9365964912752438 -0.47349298188673705
H 10.29942976287458 -1.3880819298634042 -0.29903907494578474
H 8.85376926924928 -1.3048146491622303 -0.7834640430633366
O 1.9525900156688785 -8.626301091015499 6.610462404489277
H 2.495464204797312 -8.145038654583454 5.968090674913919
H 1.050794362415823 -8.53905116262163 6.266785239013943
O 5.7092194440562425 -6.9119255503617305 -0.5915882654723537
H 5.334416269243651 -7.181057794076361 0.2605019717933552
H 6.239893544205828 -7.675068853349697 -0.8653751220506871
O -5.018755546899634 -1.5314782868935621 5.080682221304749
H -4.087037869074337 -1.6057398324469445 4.825036473090816
H -5.120615893467632 -2.1869611737221026 5.787031001421179
O -3.0126529305821705 -3.1887404553182015 -8.649760003132045
H -2.7195364871113163 -3.4377033076186034 -7.760340189072648
H -3.702354163166053 -3.836494017270621 -8.85878028217268
O 5.560594569714603 5.955829727434729 5.107594845493296
H 5.824885353518073 5.801886810445401 4.188127979964491
H 4.897264153895774 6.659487474562704 5.045784824813785
O -4.518209922551198 6.928929160761859 3.9521274352195426
H -3.95645243951372 7.712416966063607 3.8544404550489517
H -4.738219480807525 6.683580815859502 3.0408854650329578
O 4.673168776086835 -9.034321906990684 -2.682074959377487
H 4.645560162860313 -8.663012809870889 -1.787460698496413
H 5.610851667083326 -8.994526533291774 -2.9231746658572497
O 1.6847046591168855 -1.3317598465516123 -6.477766390197611
H 1.254549979141435 -0.5110553151578883 -6.761277201887442
H 1.4418365676630318 -1.9721892480396406 -7.1632058230895685
O 1.9480104725510254 -3.2392448546092285 1.3199417110982374
H 1.7468628865511053 -3.2584557727210184 2.267643112475121
H 2.2892539548157984 -4.1271248293336456 1.1350526075924374
O 9.350245857525797 3.3327065115902776 3.4066016098261125
H 8.722669984831985 4.06959401891928 3.4525655354096774
H 9.100252226570491 2.7655518925802 4.151451102621344
O -5.7530861467655505 0.13201979289183707 3.605258480630327
H -4.993798305722323 0.6213727027097455 3.9559478887918242
H -6.3696770329159405 0.8254018645324408 3.325975602272811
C -3.941926116429681 -8.00121416961321 -16.353647614663537
O -4.960426144348048 -8.103213600345828 -15.733105862191952
O -2.923426088511314 -7.899214738880589 -16.974189367135125
O 12.043162860337272 19.215214035049343 -3.251132529331896
H 12.699636654293114 19.30561944940891 -3.958123601272483
H 11.215874859694194 19.03337248618992 -3.7217599397112586
O -8.166534137038203 -6.305171372185049 14.448333432358634
H -8.074850525392609 -6.255501838284209 13.484956865455693
H -7.308441808834432 -6.64099064717777 14.748108206349361
O -11.288668307947765 8.556269148890175 3.7592611288474993
H -10.910578321359967 8.071506364931528 4.508274054123627
H -11.16999554191723 7.955884481180603 3.0079842360297255
O 2.19332980913473 0.813495765394527 -23.538046091481142
H 2.2734583573481375 0.08921701278696847 -24.176769084007987
H 3.0692492262466526 1.227866484793397 -23.542947716841162
O 17.319219430881482 0.2112260066996967 10.705697238497928
H 17.157570048824457 -0.13001192345031676 9.813288414467415
H 17.683314543790598 -0.5485323820922741 11.184407885670025
O -6.265746487688763 7.953939033234219 -11.13657725504505
H -7.050876161107308 7.6708124731536245 -11.62889636273296
H -5.669120756072453 7.19221811264433 -11.189311682215477
O 13.19951881840074 1.0890882564383937 6.998461346302044
H 12.910198172676576 0.5825027326175625 7.772174489471349
H 12.51471998878435 0.9150963628871538 6.33533290607762
O 7.115795509552024 3.30434800620828 -7.905745801003494
H 7.185118563092537 2.7696863421091247 -7.100575895896167
H 7.899927951093638 3.057600984349408 -8.418789820192652
O -11.308574089006807 -12.945402419456013 3.471310956266729
H -11.474015092423109 -12.416274720694778 2.67656539340258
H -10.47051088127045 -12.599033061116346 3.812837341399728
O -3.6749707460243632 -18.67738496458216 2.426698522130377
H -3.991582880727983 -17.97383980347348 1.8403979854267343
H -3.3430717093814284 -18.202907948110756 3.203664759888416
O 14.143362308724017 3.1182114178768687 -4.649034126306772
H 14.102341859614093 3.882545431382976 -5.243237959559697
H 14.18066078419602 3.511385972663998 -3.764169991258117
O 19.64222839938801 2.958336172706751 -0.36459394606563383
H 20.20268163462215 3.1834915451587182 -1.122330434742006
H 19.157467775831485 2.1720788780773748 -0.6574566251341444
O -11.040085414579085 -8.467296076326411 -7.8752305370236595
H -11.609836424869904 -8.681728266751907 -8.629133699825037
H -10.860541823051065 -7.52077814107197 -7.979297060377178
O -18.4551896751799 8.47427155993667 -5.229822214781891
H -18.79289446561376 9.059330960048218 -5.92453678189499
H -17.89419856937737 7.8442613699302255 -5.7066220511896875
O 20.89136919321205 2.6742142752012965 3.3255108970699903
H 21.51794570746867 2.041477506567249 3.7076279083382273
H 20.8201437046661 3.3682417031407965 3.9979800810100974
O -1.651289539293355 26.035681448825574 4.127970345017614
H -1.7587794027021229 25.32227801245839 4.774862007619522
H -1.6455470528678173 25.57818725516185 3.2737876766652088
O 15.84614318532595 0.42844335062309824 -10.599797824900527
H 15.644764863474327 0.21466632966864108 -9.676372942357254
H 15.42672941896593 -0.2860880846658862 -11.102290476460299
O 4.770064184255609 -13.603922029745664 2.1039830251201037
H 4.77299030001451 -13.555154302902011 1.1362121309694952
H 5.070345980963523 -12.726043063802354 2.3834849178152515
O -4.81663007034936 2.8572417796753715 -6.990205218341468
H -4.7309849000819995 2.4676753210432985 -7.8733078375306205
H -5.545682178664921 2.3631224638768273 -6.586112321329642
O 8.900966514926578 7.380235666821645 8.5996031741184
H 8.373658206844606 7.099817574044269 9.362675253525598
H 8.505672562004087 8.226004202482311 8.340026173655488