194

C -5.0710522388059704 1.0783507462686561 0.47044029850746183
C -3.8153522388059704 0.1782507462686569 0.19534029850746193
C -4.11845223880597 -1.3219492537313435 0.5608402985074619
C -2.96945223880597 -2.3874492537313436 0.7034402985074619
C -2.52015223880597 0.7359507462686565 0.7384402985074618
C -2.20305223880597 0.7852507462686571 2.097440298507462
C -1.5755522388059702 1.205650746268656 -0.18965970149253808
C -0.9533522388059701 1.2695507462686564 2.508640298507462
H -2.91125223880597 0.4298507462686567 2.840840298507462
C -0.32655223880597006 1.6562507462686575 0.21554029850746192
H -1.7850522388059702 1.178550746268657 -1.2573597014925382
C 0.004447761194029898 1.6956507462686563 1.569740298507462
H -0.7158522388059702 1.2676507462686573 3.5705402985074617
H 0.3943477611940298 1.9193507462686572 -0.5551597014925382
C -1.76045223880597 -2.1592492537313435 -0.1734597014925381
C -0.5287522388059701 -1.936549253731343 0.464840298507462
C -1.8068522388059702 -2.121249253731343 -1.5681597014925381
C 0.6114477611940299 -1.614449253731343 -0.2582597014925381
H -0.4544522388059702 -1.954049253731343 1.5506402985074619
C -0.6479522388059701 -1.8270492537313432 -2.2998597014925384
H -2.74345223880597 -2.290549253731343 -2.092259701492538
C 0.5698477611940298 -1.5506492537313434 -1.6506597014925382
H 1.5072477611940298 -1.351949253731343 0.2991402985074618
H -0.7173522388059701 -1.7640492537313435 -3.3840597014925375
C 1.7791477611940298 -1.082849253731343 -2.4255597014925376
H 1.4739477611940297 -0.9102492537313429 -3.464259701492538
H 2.1252477611940295 -0.1337492537313434 -2.0010597014925384
C 1.3965477611940298 2.0964507462686566 1.997440298507462
H 1.51704776119403 1.8448507462686567 3.057640298507462
H 2.1256477611940294 1.5207507462686571 1.4165402985074618
C 3.94864776119403 -1.4275492537313434 -3.522959701492538
H 4.81734776119403 -2.087049253731343 -3.615159701492538
H 3.4305477611940303 -1.3641492537313429 -4.484459701492538
H 4.26984776119403 -0.441449253731343 -3.176459701492538
C 2.60904776119403 -3.4296492537313434 -2.8992597014925376
H 1.9825477611940296 -3.869549253731343 -2.119359701492538
H 2.06294776119403 -3.373349253731343 -3.845759701492538
H 3.5215477611940305 -4.019849253731343 -3.0234597014925377
C 3.7281477611940304 -2.060049253731343 -1.156659701492538
H 3.9048477611940298 -1.032549253731343 -0.8295597014925382
H 3.12924776119403 -2.623249253731343 -0.4404597014925382
H 4.68244776119403 -2.5769492537313434 -1.3005597014925383
C 3.1110477611940297 3.755250746268656 2.588740298507462
H 3.40124776119403 4.809350746268656 2.534540298507462
H 2.9823477611940303 3.461750746268656 3.634840298507462
H 3.86514776119403 3.1392507462686563 2.091540298507462
C 1.99744776119403 3.9574507462686572 0.40494029850746194
H 2.67914776119403 3.230350746268657 -0.04295970149253803
H 1.03214776119403 3.981150746268657 -0.10175970149253821
H 2.4399477611940297 4.958250746268657 0.368240298507462
C 0.7418477611940297 4.4992507462686575 2.475440298507462
H -0.18475223880597014 4.424250746268656 1.901240298507462
H 0.57844776119403 4.189650746268656 3.511940298507462
H 1.1210477611940297 5.524350746268658 2.4432402985074617
N 3.00114776119403 -2.025349253731343 -2.490159701492538
N 1.7831477611940298 3.586450746268657 1.862540298507462
C -3.55075223880597 -3.8435492537313434 0.6444402985074619
H -2.62515223880597 -2.2736492537313433 1.7424402985074618
H -4.67195223880597 -1.3478492537313436 1.5102402985074619
H -4.83415223880597 -1.6757492537313432 -0.1945597014925382
H -3.7169522388059697 0.17335074626865676 -0.900559701492538
H -3.9132522388059705 -4.043149253731343 -0.34225970149253815
H -4.35435223880597 -3.9354492537313432 1.3449402985074619
H -2.78115223880597 -4.545049253731343 0.8904402985074619
H -5.24235223880597 1.138950746268657 1.5249402985074618
H -5.92805223880597 0.6501507462686567 -0.006059701492538094
H -4.89895223880597 2.059650746268657 0.08004029850746197
C 2.302430604747032 -3.5902333548891994 3.0363028415239652
O 2.8375122036391014 -3.702109825118526 4.128523898149469
O 2.867741282022255 -3.7410541437873386 1.9471249901632368
O 1.1128063333828768 -3.3088787438699385 2.851148688884868
O 6.768677446886558 2.8531223298389774 4.556823097395954
H 6.524125289574452 2.7594718085884904 3.6238755216321774
H 6.103543073355422 3.460997550605309 4.9132581201218715
O 1.764494448954642 -1.1998217607299568 8.69176997118912
H 2.1096842996957954 -0.39743062018121333 9.111269412683608
H 1.8990820242994992 -1.0452382760313064 7.744694432955123
O 5.145457749801776 9.350341773338096 0.7667972896521438
H 4.936408431802028 10.295982445596586 0.7988824655804401
H 5.8646261876226875 9.247727100714627 1.4080686294955889
O 4.951370047061861 8.408854951740363 5.215493381035775
H 4.9760625012639945 8.54757584488845 6.174197795028781
H 5.198695094639595 7.478227862150307 5.107209101189564
O 0.865128405250206 -6.66907640321535 -0.6398574740908343
H 0.5173202208602665 -6.576737383612965 0.2598482162492044
H 0.72824459019034 -5.794771231397606 -1.0345918556785052
O -4.185226254636082 -7.853810475353079 -2.757044377236283
H -3.431582110714672 -7.635299436250372 -3.325587064308433
H -3.7827732765113744 -8.035651507166946 -1.8945321258175447
O 1.9859250363530911 5.04905449374632 -5.896119793486547
H 1.8512885692607766 4.950620900798911 -6.850662200301649
H 1.8577036522000254 5.9964506932566835 -5.73812719208006
O -0.36014849926691506 -2.5840594507366177 6.533497886291768
H -0.48512033368460356 -2.7390533572023776 7.481826039654708
H 0.06544798361496379 -3.395343342963452 6.217827133335699
O -1.982611159133568 0.9391520031248978 10.023791930037422
H -2.4915737840751238 0.8605979868995652 9.202966936602479
H -1.1704192084277265 0.4421598299269332 9.84405612590089
O -4.27512056653725 1.7208322560810374 -3.7511249829856443
H -4.19588075036828 1.6593651618428922 -2.787325105023716
H -4.809516729177348 0.9491495852205665 -3.991725359438357
O -3.1102532278572808 4.592594808025062 9.710128179958065
H -2.6392059402797043 4.480880673388281 10.549533780301642
H -2.8341354952456816 3.827705818155465 9.183188168938123
O 7.628295294670584 -2.6704343235836334 7.611950882485873
H 7.43974261874263 -2.981746396534623 8.510004354465893
H 6.932569479355589 -2.018408091847767 7.439355032788926
O -6.794162538958039 2.446496666175618 -3.876653316963222
H -6.7590098468484285 3.366435329223438 -3.574255398043071
H -6.496916413454738 2.491405931138842 -4.7978426802831295
O -2.3436359154912547 5.795995127349859 -2.5735972223071872
H -2.0500982516682 5.535233300949882 -3.4594901428736926
H -2.9498537454935603 6.534343400420578 -2.735781421724958
O -3.9008906293481056 -4.423937341774298 -4.466235048736635
H -3.837019853306344 -4.338836409495203 -5.429378709979886
H -4.662186255552373 -3.87190374959479 -4.23246202435692
O 6.227459328958298 5.4516853207407 -3.6079905237913814
H 6.470043755771538 5.822022857591981 -4.469947751017082
H 5.822081054024854 6.19643532683749 -3.1389725849758006
O -8.486160608971112 1.552222769652012 4.649515466737585
H -8.85174459081331 1.5374358511140627 5.5467874746373935
H -7.62745086073418 1.112329726869285 4.739368811106189
O 1.8106031138752716 -6.546884591201887 4.31166209214261
H 1.0096073848097276 -6.084839617365559 4.601295724636051
H 2.532669384328833 -5.977237158479723 4.616758876403491
O 5.6654735033904275 -1.9444449467348957 5.411297624551426
H 4.96111289257114 -2.337203803652096 4.874097506216207
H 6.324207317049237 -1.6584898620287971 4.760712198513269
O 4.511364025874369 3.1166949236000487 -2.029314875164377
H 5.065858108069929 2.6613907032121804 -1.3780071624762036
H 4.515491325853399 2.5236487988326273 -2.79563152224522
C -12.742376786131185 -13.463763320727793 14.74309706553172
O -13.865305336986221 -13.132644230793355 14.493677989966915
O -11.619448235276153 -13.794882410662233 14.992516141096523
O 6.3140514519305935 -20.1240027370341 1.4709406011783912
H 5.971360843018431 -20.954442216933113 1.1077591400760003
H 6.572542883714902 -19.615104211582686 0.687891168008635
O 7.227297848080322 -10.574850844684713 -12.148104388934474
H 7.442088556401513 -10.18734817436726 -13.009889738668226
H 8.07482883788844 -10.919065527915492 -11.828464877197883
O -8.835632143673601 2.7136264641312287 -14.949743393053929
H -8.8352691885486 3.4536322784038767 -15.575330013759851
H -8.081419278862013 2.1722044578067097 -15.227208904280515
O 2.365396328299639 -0.37223584638911167 4.024432734523879
H 2.1511611739703573 -1.3165379744879655 4.061367087333776
H 2.9804699974081803 -0.24275290876989442 4.761915273120458
O -11.868988328175856 -3.938492961538798 1.7998001947009923
H -11.227542553063767 -4.422875723382785 2.3409914866849277
H -12.382429506625428 -4.635889097721606 1.3650833560466735
O -0.15640950387398966 13.541615584896824 8.794067786560541
H 0.19177925711602573 13.653981656651874 9.691344672219909
H 0.6323185688923463 13.568895093852714 8.231817130783753
O 10.09787646658392 -11.465575956667456 7.549710170870425
H 9.658055296915595 -10.812767485617593 8.114834755132277
H 9.544110946687137 -11.4983081497968 6.755207624111517
O 14.461381525938549 -2.3370601911833893 2.740634751416819
H 15.26470528822237 -2.266882165809628 2.20331423756609
H 13.750093304900501 -2.422524960198273 2.0881573309877592
O -3.238332033537856 10.204515740866462 7.77031416899915
H -3.373026141083056 10.015139504741532 8.7110380899684
H -2.4433331712337125 10.758311473376704 7.754533171294362
O -4.718374302996994 -17.37275676693468 -6.475823067666441
H -4.542966125693816 -17.7817250542492 -7.336604264142178
H -4.41278396677607 -18.033395102886907 -5.836187640427881
O -5.797176001926597 6.198128831892438 12.577628056828832
H -6.4970685878815155 5.782678132268629 13.103478264784886
H -5.818165302349337 7.127133397663421 12.852349570992587
O -19.69691627839895 3.7695019744432567 1.9263926918090577
H -18.939796650637376 4.019754864501262 1.3758377743159942
H -19.817240347309102 2.8255007294331946 1.743784608306826
O -9.988705901040557 6.808846620478454 -13.820652671682854
H -9.99470890171381 7.270250675128684 -12.968574260246884
H -9.973861209935027 5.8706587835716935 -13.57869159604011
O -1.8031528376501877 2.3164676000956694 -5.305498014804283
H -2.219273532648771 1.5122333764100242 -4.960507815600531
H -2.5383097355283963 2.81002240304565 -5.699084010854822
O -5.997846563464779 -7.223122386119273 -16.664600537654284
H -6.7598249907498555 -7.810645562071443 -16.549827932163076
H -5.2912571758076625 -7.812751775880814 -16.967965934955576
O 13.22729063611742 0.023903018429002998 -16.590300255170234
H 13.315321672504542 -0.16124517005571448 -15.6432321257131
H 13.685349855920968 0.8697916422430669 -16.70698843604094
O 13.721399814191031 -5.59558651338299 16.604328256823358
H 13.940810631144982 -6.505600472457238 16.85472962381965
H 14.327155280346226 -5.054810554135077 17.133084931885342
O -5.321705432903546 -9.862021460958433 -10.75009901376004
H -5.276251396810212 -9.845585589772156 -9.782301953606842
H -6.233185941057419 -9.597939612591764 -10.946124534850545
O -5.27073742877592 -6.839325722568669 -7.682657663041412
H -4.720901403681167 -6.147303054932211 -8.079838138247988
H -5.003945195178591 -6.84439389833995 -6.751122284225074
O 9.26447143932174 1.159120801180558 -11.022443743029044
H 8.587407885640676 1.6464748394192323 -11.515432934177518
H 9.704750333236783 1.8409249912769408 -10.49304834614694