194

C -5.0710522388059704 1.0783507462686561 0.47044029850746183
C -3.8153522388059704 0.1782507462686569 0.19534029850746193
C -4.11845223880597 -1.3219492537313435 0.5608402985074619
C -2.96945223880597 -2.3874492537313436 0.7034402985074619
C -2.52015223880597 0.7359507462686565 0.7384402985074618
C -2.20305223880597 0.7852507462686571 2.097440298507462
C -1.5755522388059702 1.205650746268656 -0.18965970149253808
C -0.9533522388059701 1.2695507462686564 2.508640298507462
H -2.91125223880597 0.4298507462686567 2.840840298507462
C -0.32655223880597006 1.6562507462686575 0.21554029850746192
H -1.7850522388059702 1.178550746268657 -1.2573597014925382
C 0.004447761194029898 1.6956507462686563 1.569740298507462
H -0.7158522388059702 1.2676507462686573 3.5705402985074617
H 0.3943477611940298 1.9193507462686572 -0.5551597014925382
C -1.76045223880597 -2.1592492537313435 -0.1734597014925381
C -0.5287522388059701 -1.936549253731343 0.464840298507462
C -1.8068522388059702 -2.121249253731343 -1.5681597014925381
C 0.6114477611940299 -1.614449253731343 -0.2582597014925381
H -0.4544522388059702 -1.954049253731343 1.5506402985074619
C -0.6479522388059701 -1.8270492537313432 -2.2998597014925384
H -2.74345223880597 -2.290549253731343 -2.092259701492538
C 0.5698477611940298 -1.5506492537313434 -1.6506597014925382
H 1.5072477611940298 -1.351949253731343 0.2991402985074618
H -0.7173522388059701 -1.7640492537313435 -3.3840597014925375
C 1.7791477611940298 -1.082849253731343 -2.4255597014925376
H 1.4739477611940297 -0.9102492537313429 -3.464259701492538
H 2.1252477611940295 -0.1337492537313434 -2.0010597014925384
C 1.3965477611940298 2.0964507462686566 1.997440298507462
H 1.51704776119403 1.8448507462686567 3.057640298507462
H 2.1256477611940294 1.5207507462686571 1.4165402985074618
C 3.94864776119403 -1.4275492537313434 -3.522959701492538
H 4.81734776119403 -2.087049253731343 -3.615159701492538
H 3.4305477611940303 -1.3641492537313429 -4.484459701492538
H 4.26984776119403 -0.441449253731343 -3.176459701492538
C 2.60904776119403 -3.4296492537313434 -2.8992597014925376
H 1.9825477611940296 -3.869549253731343 -2.119359701492538
H 2.06294776119403 -3.373349253731343 -3.845759701492538
H 3.5215477611940305 -4.019849253731343 -3.0234597014925377
C 3.7281477611940304 -2.060049253731343 -1.156659701492538
H 3.9048477611940298 -1.032549253731343 -0.8295597014925382
H 3.12924776119403 -2.623249253731343 -0.4404597014925382
H 4.68244776119403 -2.5769492537313434 -1.3005597014925383
C 3.1110477611940297 3.755250746268656 2.588740298507462
H 3.40124776119403 4.809350746268656 2.534540298507462
H 2.9823477611940303 3.461750746268656 3.634840298507462
H 3.86514776119403 3.1392507462686563 2.091540298507462
C 1.99744776119403 3.9574507462686572 0.40494029850746194
H 2.67914776119403 3.230350746268657 -0.04295970149253803
H 1.03214776119403 3.981150746268657 -0.10175970149253821
H 2.4399477611940297 4.958250746268657 0.368240298507462
C 0.7418477611940297 4.4992507462686575 2.475440298507462
H -0.18475223880597014 4.424250746268656 1.901240298507462
H 0.57844776119403 4.189650746268656 3.511940298507462
H 1.1210477611940297 5.524350746268658 2.4432402985074617
N 3.00114776119403 -2.025349253731343 -2.490159701492538
N 1.7831477611940298 3.586450746268657 1.862540298507462
C -3.55075223880597 -3.8435492537313434 0.6444402985074619
H -2.62515223880597 -2.2736492537313433 1.7424402985074618
H -4.67195223880597 -1.3478492537313436 1.5102402985074619
H -4.83415223880597 -1.6757492537313432 -0.1945597014925382
H -3.7169522388059697 0.17335074626865676 -0.900559701492538
H -3.9132522388059705 -4.043149253731343 -0.34225970149253815
H -4.35435223880597 -3.9354492537313432 1.3449402985074619
H -2.78115223880597 -4.545049253731343 0.8904402985074619
H -5.24235223880597 1.138950746268657 1.5249402985074618
H -5.92805223880597 0.6501507462686567 -0.006059701492538094
H -4.89895223880597 2.059650746268657 0.08004029850746197
C 1.6140056014599817 -3.9679792187500733 0.7826327463789207
O 2.0983318328504623 -3.4673006318918747 1.7858897188684077
O 0.4611044791968091 -3.7795548768674907 0.37772938288284874
O 2.2018359967585948 -4.740572201479798 0.016993213831219434
O -3.9877068905907187 -2.863477376312364 4.213106837009992
H -4.34658905524232 -3.052898396341555 5.093044690478113
H -4.771198598073507 -2.66533449109846 3.678464820661844
O -6.809042211761947 -3.0054308369537406 -3.8585171321863982
H -7.000380014288425 -3.720797682480182 -4.483503114865922
H -7.684609404286139 -2.6898677853324076 -3.588769108789125
O -5.410755429253176 -0.9729488130571218 6.524319717433316
H -6.250951691119048 -0.8616164687617696 6.054593512543364
H -4.781644798136413 -0.4489196217217102 6.0060773371282865
O 7.094844728315515 -1.769010723404838 3.370078756480826
H 7.5355372097653675 -2.2222724198065253 4.104456948061047
H 6.31400965576428 -1.366007804490713 3.778548071265428
O -7.896510127476463 4.6358422653474 -0.07835249916095943
H -7.934271417881247 4.696818247559266 0.887992869452284
H -7.034604283712349 5.017178799996058 -0.3034362794016086
O 1.7205052137749441 -7.873460160073005 -6.438690218806994
H 1.585840859241329 -7.774286047422318 -5.484228399823126
H 0.8778498607164846 -7.590659114800537 -6.824588481377223
O 2.42593341887179 0.49808427279251777 7.6423013934095065
H 3.2803044654430833 0.39152900811261393 8.086894968767574
H 2.6231171799319415 1.0794560816077048 6.892576558160513
O 9.088508524479305 3.7132780757299226 -0.9682373414689733
H 8.686360383732017 3.923392556547073 -0.1120270082304402
H 10.036687005259054 3.8482292029537053 -0.8209019887961082
O -0.4502451077591121 4.54250710930269 -7.205477545232604
H -1.2333837682979736 4.186330615509254 -7.65134692132656
H 0.24969988706864799 4.474846153581214 -7.872156586140914
O -1.2366362694951754 4.394319186979463 -0.19418488584589066
H -1.364264237733624 3.4376985500346593 -0.2811067794898103
H -1.7968137668084296 4.769388762280137 -0.8902351207338834
O 4.545397021465335 8.361809204344897 4.652729402981095
H 4.28896662849112 9.04812816871259 5.286903739901431
H 4.287131356152697 8.72852964034897 3.79378999170833
O 0.7721636709651323 7.084964998924468 -4.5562644471724845
H 0.8038456354175829 7.382806059587484 -3.6347144959427298
H 1.6923586620925684 7.145962684860421 -4.853724368698792
O 2.5382614295037236 -1.132722559625152 9.915083459140476
H 2.8841890343554923 -0.6367541628571589 10.672260319925925
H 2.164266461673127 -1.9340392680803244 10.311292041944986
O -3.2281194706974494 8.606749109609991 6.708651573188366
H -3.129971235005425 8.700503438656323 7.668101627394221
H -3.207250540987858 9.518449177343568 6.3810398844967615
O -1.9390561852670434 -0.5421808842204925 -7.270896722491752
H -1.0663544011322534 -0.3875464012279055 -7.662620004334394
H -2.43502552911843 -0.9890301924115508 -7.973251369396574
O 6.348571372564987 3.5011630981306845 5.976418378737723
H 7.257171171411597 3.394847223710243 6.295966023514083
H 6.37456468904027 3.1468896838793805 5.0748771208058745
O -0.38385906006879855 1.1499461509141344 6.857507386456976
H 0.0802405720420114 1.2051277076501943 7.706350059848692
H -1.1258240165269595 0.5524440026347384 7.034823856333704
O -1.9066034698542864 7.4703590745874004 -10.779793287540985
H -1.4384343013883079 7.360042639693514 -11.620991998185609
H -2.461259595211767 6.678448480107059 -10.715015689150663
O -3.138227390327943 3.1060108929537296 -6.9722351745638935
H -3.350033537279791 3.3853643265176183 -6.068870811657387
H -3.7326169880252964 3.634218389093701 -7.526003891151172
O 4.807505646339006 -0.16788224557025888 5.408467111423715
H 5.145119393689917 -0.010029915877533213 6.302931731467601
H 3.894875647781809 0.15604667461512634 5.442208550353027
C 8.037803535963274 1.7566917308249517 -2.7032847574955023
O 8.47452013218863 2.750473229598521 -3.207759934859759
O 7.601086939737918 0.7629102320513828 -2.1988095801312455
O -20.777684366009424 8.048346854144079 -11.492435923330369
H -20.44258879201753 8.452825027243586 -10.678141307925646
H -20.19016340978383 8.390688502712838 -12.18278602722765
O -6.351258550926792 5.925435185897648 -14.685010412900063
H -6.47934799423985 6.759485468601375 -14.20864859942885
H -7.157095383048954 5.421669706475207 -14.49577699609003
O 0.9141851908796625 12.283909529435272 6.0340702343224955
H 1.3845313860805781 12.756549647510457 6.737172739186401
H 1.4270595850588244 12.481018195596718 5.235903601457269
O 8.421721145673684 3.193687981919977 11.963408439987482
H 7.857377578954253 3.9812268462922504 11.979725078906718
H 8.034080331586496 2.613979319549129 12.636189541331763
O -2.7625504243513292 4.06754728361939 6.210316073417513
H -2.7860321068973275 3.673992993198064 7.095488931098867
H -3.3464193890819223 4.837653193075582 6.280997503405011
O 15.707040555665927 6.148695101072386 11.515684247438013
H 16.573180994380856 6.111106771195608 11.082838761404268
H 15.881469473418981 6.612448630753098 12.348432204901842
O 4.734078477194828 7.050122205051043 -11.349987783352516
H 5.341801387379802 7.251229463563755 -10.622529130293934
H 5.216995490744711 6.403641990616061 -11.886473043791385
O -2.1658797716850238 -20.712802675547778 -4.011746289136967
H -2.0592796247193768 -20.63191193525511 -4.971465234298418
H -3.119637712210647 -20.834799966961477 -3.8916446818536294
O -7.743718841741448 -7.763447140953162 -9.147173979231457
H -7.481377799082592 -8.509133018545185 -8.586730310165173
H -8.412669431390167 -7.299579538760191 -8.62153731713075
O -7.851452386405679 7.602979018650025 0.09053700504864937
H -7.793797545453058 8.523428088945565 0.38788660603510783
H -8.121960953752112 7.117155053737605 0.8841125429837322
O 5.261731088035708 -4.025128400383425 -8.519483873310818
H 4.810749976149383 -4.385131743084077 -9.297931679439227
H 5.582029496110701 -4.8103017963930235 -8.050577046442859
O 2.4155515530325253 2.648991339451871 18.809688117070475
H 1.9064559484068986 2.6678543711801566 19.633965502593632
H 2.3867680431733076 3.56528836654197 18.49578811387514
O 0.08754186457670876 -20.03860655982893 -2.9848006710060897
H -0.21205963161162433 -19.380287122313675 -2.3399581952251385
H 1.0231545539865483 -19.82540856528498 -3.1194760393468646
O 5.8527917896680925 -11.39372083272874 -1.2227886173066373
H 5.727519283057701 -10.458205442036256 -1.4420717898599449
H 5.600814613269465 -11.450991780404063 -0.2888777621247609
O -15.05151843773028 4.981225097263166 2.7676561803034945
H -14.374060076314926 4.472214214596432 2.2976291100455595
H -14.660908832750708 5.863413183655009 2.8578241403890985
O 7.489048537805454 -0.40090665328715835 -6.496754369456734
H 8.166447539016078 -0.23537689750049728 -7.169582616491638
H 6.922711741706702 0.3843526459936557 -6.536659388910487
O 13.170713199730635 4.562595041587796 -11.989832016347467
H 13.443002468166389 4.179478183931244 -12.837208782947833
H 13.165358027944103 3.807539269012382 -11.382523160216023
O 15.173987427283329 -6.273154948007365 6.8365900885053295
H 15.208344257179014 -6.2980166051360245 7.804664911617849
H 16.095158337869535 -6.404740653833603 6.566236061696055
O -2.893716372600396 6.709957510176038 3.9033131973432997
H -3.1080142081636333 7.047878129195686 3.0207864556440525
H -2.961330647106865 5.7479912387612195 3.8083861366954834
O 4.4329885706344845 -7.3845475864926104 4.261965206970602
H 4.237803855973092 -7.477475258651092 5.2065469831074065
H 4.095434193833937 -8.204608150596421 3.871427554234617