194

C -5.0710522388059704 1.0783507462686561 0.47044029850746183
C -3.8153522388059704 0.1782507462686569 0.19534029850746193
C -4.11845223880597 -1.3219492537313435 0.5608402985074619
C -2.96945223880597 -2.3874492537313436 0.7034402985074619
C -2.52015223880597 0.7359507462686565 0.7384402985074618
C -2.20305223880597 0.7852507462686571 2.097440298507462
C -1.5755522388059702 1.205650746268656 -0.18965970149253808
C -0.9533522388059701 1.2695507462686564 2.508640298507462
H -2.91125223880597 0.4298507462686567 2.840840298507462
C -0.32655223880597006 1.6562507462686575 0.21554029850746192
H -1.7850522388059702 1.178550746268657 -1.2573597014925382
C 0.004447761194029898 1.6956507462686563 1.569740298507462
H -0.7158522388059702 1.2676507462686573 3.5705402985074617
H 0.3943477611940298 1.9193507462686572 -0.5551597014925382
C -1.76045223880597 -2.1592492537313435 -0.1734597014925381
C -0.5287522388059701 -1.936549253731343 0.464840298507462
C -1.8068522388059702 -2.121249253731343 -1.5681597014925381
C 0.6114477611940299 -1.614449253731343 -0.2582597014925381
H -0.4544522388059702 -1.954049253731343 1.5506402985074619
C -0.6479522388059701 -1.8270492537313432 -2.2998597014925384
H -2.74345223880597 -2.290549253731343 -2.092259701492538
C 0.5698477611940298 -1.5506492537313434 -1.6506597014925382
H 1.5072477611940298 -1.351949253731343 0.2991402985074618
H -0.7173522388059701 -1.7640492537313435 -3.3840597014925375
C 1.7791477611940298 -1.082849253731343 -2.4255597014925376
H 1.4739477611940297 -0.9102492537313429 -3.464259701492538
H 2.1252477611940295 -0.1337492537313434 -2.0010597014925384
C 1.3965477611940298 2.0964507462686566 1.997440298507462
H 1.51704776119403 1.8448507462686567 3.057640298507462
H 2.1256477611940294 1.5207507462686571 1.4165402985074618
C 3.94864776119403 -1.4275492537313434 -3.522959701492538
H 4.81734776119403 -2.087049253731343 -3.615159701492538
H 3.4305477611940303 -1.3641492537313429 -4.484459701492538
H 4.26984776119403 -0.441449253731343 -3.176459701492538
C 2.60904776119403 -3.4296492537313434 -2.8992597014925376
H 1.9825477611940296 -3.869549253731343 -2.119359701492538
H 2.06294776119403 -3.373349253731343 -3.845759701492538
H 3.5215477611940305 -4.019849253731343 -3.0234597014925377
C 3.7281477611940304 -2.060049253731343 -1.156659701492538
H 3.9048477611940298 -1.032549253731343 -0.8295597014925382
H 3.12924776119403 -2.623249253731343 -0.4404597014925382
H 4.68244776119403 -2.5769492537313434 -1.3005597014925383
C 3.1110477611940297 3.755250746268656 2.588740298507462
H 3.40124776119403 4.809350746268656 2.534540298507462
H 2.9823477611940303 3.461750746268656 3.634840298507462
H 3.86514776119403 3.1392507462686563 2.091540298507462
C 1.99744776119403 3.9574507462686572 0.40494029850746194
H 2.67914776119403 3.230350746268657 -0.04295970149253803
H 1.03214776119403 3.981150746268657 -0.10175970149253821
H 2.4399477611940297 4.958250746268657 0.368240298507462
C 0.7418477611940297 4.4992507462686575 2.475440298507462
H -0.18475223880597014 4.424250746268656 1.901240298507462
H 0.57844776119403 4.189650746268656 3.511940298507462
H 1.1210477611940297 5.524350746268658 2.4432402985074617
N 3.00114776119403 -2.025349253731343 -2.490159701492538
N 1.7831477611940298 3.586450746268657 1.862540298507462
C -3.55075223880597 -3.8435492537313434 0.6444402985074619
H -2.62515223880597 -2.2736492537313433 1.7424402985074618
H -4.67195223880597 -1.3478492537313436 1.5102402985074619
H -4.83415223880597 -1.6757492537313432 -0.1945597014925382
H -3.7169522388059697 0.17335074626865676 -0.900559701492538
H -3.9132522388059705 -4.043149253731343 -0.34225970149253815
H -4.35435223880597 -3.9354492537313432 1.3449402985074619
H -2.78115223880597 -4.545049253731343 0.8904402985074619
H -5.24235223880597 1.138950746268657 1.5249402985074618
H -5.92805223880597 0.6501507462686567 -0.006059701492538094
H -4.89895223880597 2.059650746268657 0.08004029850746197
C 0.6111444088908997 2.8045249249048627 -3.342340442676361
O 1.1574406799477541 3.2761953393892567 -4.327664198063134
O 0.048333068900638376 3.4595731584421676 -2.457588120600842
O 0.5365732875894411 1.5991467427097346 -3.0774801584587923
O 0.5925870023893423 -2.336626601079672 8.538720918363818
H 0.6211012745698694 -2.070205087506556 9.469942626813221
H 0.10464392092838817 -1.6204302887182038 8.10520467216972
O -4.208923126569154 0.9380741507738781 9.162500085616678
H -4.700801452899426 1.7285325410566799 9.4311980614521
H -4.4186246790259744 0.8405267573786346 8.221505022272034
O 1.4041897948821815 -5.604019909301295 1.4882125831842314
H 1.3505291262407049 -5.659236500717384 0.5222731349922969
H 0.49564967556429584 -5.767476674028119 1.7828287435605426
O 3.512434439059248 -3.52551841518049 7.675253895833777
H 2.7829377354303193 -3.9484853843753513 7.197864265380158
H 3.8794472092461874 -4.237600101443588 8.220417396912499
O -0.6372199412230038 4.6814462877105365 -4.996416337579708
H -1.5991033028225938 4.667979920664159 -4.879941393765832
H -0.40541591308485786 5.619277599680016 -4.920909601929614
O 5.737058847201608 4.1916752781893125 -1.857183969331012
H 4.9061431170818475 3.7375660878733097 -1.6514383749429649
H 6.360803539700917 3.8473851121736953 -1.2003972577846522
O 8.199465908819793 1.3073203964435738 5.321199458247714
H 8.917677517063147 0.7025090796868847 5.560662845444033
H 7.400122803628589 0.8559558619129191 5.63149383694512
O -1.9898133533481142 -0.7703971407430505 -7.289398869661127
H -1.471094969957167 -1.5502189371058634 -7.537947781446633
H -1.6092597640276063 -0.49672849340091196 -6.44131492250896
O -3.7032491018684155 -0.48348592789164635 -10.755458719352045
H -4.531378019948605 -0.8246430462822751 -11.125298782772354
H -3.96566294318415 -0.10678403434894324 -9.902114355342263
O -2.7726010378154364 -6.5741578652508235 -4.671704542367445
H -2.4986423059621563 -5.991474546532864 -3.947553922517425
H -3.7354543781201768 -6.470175180437092 -4.70430807933711
O -3.1489842687129217 3.5949328392505366 0.18321419155658658
H -3.8978988507842782 3.6875323887346045 0.79109545389014
H -3.5345537980248025 3.760743501195323 -0.6901728399200922
O -1.9651934427346744 -8.843265405308266 -0.8765975058268243
H -1.8414191698194964 -8.971697704980974 -1.8290430059291136
H -1.09737288506531 -9.049291525141712 -0.49791206653346
O -7.526319479075367 0.11022710977629069 -4.2610323357693725
H -6.831723980394882 -0.396681957595842 -3.8143247720000475
H -7.051705486339937 0.8525018282398311 -4.664432564487211
O -8.211797439623194 -2.760158561554098 5.951149945653812
H -7.751087191839421 -1.965368544444527 5.642893148178098
H -8.192280597302432 -2.6823016663301122 6.9168203558000005
O -4.637731150397534 5.167719041841658 9.391921413171922
H -4.51743439072637 5.6510600957765185 8.560731018560821
H -4.0126437412517015 5.589457288828911 10.000497231172826
O 7.966332407068775 -3.0686847412816345 5.997501153704674
H 8.900511472266945 -2.8256337295349008 5.912630447719837
H 7.519107669226792 -2.5114731097165817 5.342927112200748
O 1.9924832900295582 -5.012222066413137 5.367386556406384
H 2.6238572394958757 -4.301412088779364 5.180080740875789
H 1.1732891827433334 -4.5449836527321255 5.590032516774805
O -0.4180321117514858 5.316370810354387 -1.272845386133314
H -0.9776129231233976 5.2827454394028 -0.4824619305418385
H -0.2530111319151003 6.262342413174887 -1.4027212775491333
O 8.91636285217458 -7.757655345149164 -3.883737270235671
H 8.242098365880844 -7.248548698215711 -4.358231929290147
H 9.546176614181263 -7.086519156954466 -3.580632030455035
O 7.541849824470926 -5.1308001103919 3.806232117940449
H 6.622398057164254 -5.435934805767454 3.7845844350457862
H 7.5111259205075855 -4.264245524473564 3.3736802301291116
C -6.911029108937417 -14.103048145374615 9.712966059071006
O -6.915112962454059 -13.314827986494418 8.812127249640964
O -6.9069452554207755 -14.891268304254808 10.613804868501047
O -15.309540427467766 -12.509436106902335 1.807166752231077
H -14.732720047531597 -12.272852501691196 2.5489711765476173
H -15.273467564540748 -13.477440351318885 1.7820973355686878
O -15.851886959819003 -5.988227471914406 -3.2461202033156855
H -15.860296080072418 -6.158981329344165 -4.199922994132227
H -16.339787451150258 -6.736249053726515 -2.8701165224799365
O -16.968697333881433 -12.326020441689199 -5.14013057669707
H -16.787088100671205 -12.785904982030779 -5.973492234602932
H -17.638273745494974 -11.667034998431888 -5.377549107746556
O -5.978087922484292 6.343810638070076 -12.711768937851812
H -5.624257687274598 6.9136510399312865 -12.012445380434995
H -6.5318526036285185 6.938067113041609 -13.240130427905392
O -10.165793731462673 0.33053843229968205 -7.9143405897630865
H -9.592370044936894 0.413495748936342 -8.691045627887362
H -9.773455267598898 -0.39829714319170284 -7.4105239783148775
O -19.425688648167647 -1.372381459796868 9.078966230977741
H -18.508000165477927 -1.543987174447996 9.338517159193609
H -19.918261478095143 -2.117930811061437 9.453786342959743
O -7.494593552406247 3.36443948177054 -12.944300905844448
H -7.481886129882923 3.1624823979328074 -13.89193966328347
H -7.04587651148256 4.220984913633538 -12.881492589203093
O 16.487178375512023 -3.371819537537055 7.46977690677416
H 16.502456347931577 -3.4339242985291536 8.436667251705199
H 16.497581713823212 -4.295072851994469 7.175741139910023
O 2.140513186879084 16.632999627561865 0.8230865707615784
H 1.934008235689209 15.948226177033394 0.16932179388429525
H 2.1745943357613795 16.151671141521845 1.66339800595527
O -11.260883485494448 -11.882436447437273 -1.6777898205805855
H -11.298936710387956 -12.846149494423726 -1.5841069937482857
H -11.592201717134301 -11.721130806379243 -2.573987713819516
O 4.585223490938443 0.9049341350538049 -13.399081730949767
H 4.3879230347796 1.8155073060323157 -13.665345485887713
H 3.7208027305602647 0.4670833543422952 -13.40412029796172
O 13.005307947845937 3.6185426080379655 3.557588985837675
H 13.42651358151377 2.946811910472656 4.1146626264049715
H 13.669071068815672 3.8085305947736874 2.877673529007471
O -21.398884233839887 -12.2780699895972 2.650460782690926
H -22.185642180508346 -12.206613966261596 2.0893250353150368
H -20.957268471897144 -11.422089362969855 2.544467245423819
O 7.574545602557616 15.190645959776912 13.751408620797104
H 7.167000564068466 15.924366738622755 14.235689755255937
H 7.109998149766199 15.18477103043524 12.901042174134115
O -6.943376775870947 -5.16133133878833 -9.895008299281441
H -6.935664796157681 -5.042665828892335 -10.85668723688485
H -7.884150707859514 -5.239381303920351 -9.676342901621773
O -6.698568632513938 4.076384040629525 3.9074112801332257
H -7.270854278407231 3.3318841832317023 4.146527274452135
H -7.023581433711605 4.351270962596732 3.036913834135227
O -15.219981385131735 2.5151361049425605 8.184957044878262
H -16.02536748338838 2.025207280805639 8.409212115979791
H -15.16219475957151 3.1970716321756925 8.870950183986542
O 3.4802676857168118 -7.707906259223581 -16.53162472610466
H 4.109432179977912 -6.986893561929424 -16.379112148256866
H 2.9262589930892364 -7.707197413311105 -15.736617927183698
O 9.407615196791575 4.251927756682564 -12.759976155059736
H 9.441669814756372 4.290224402548365 -13.72762330501198
H 10.17519690935982 4.771803166305983 -12.478001302812793
O -2.6297591184037925 -7.127537061590436 12.377854441089728
H -1.9614652345721 -7.194117183125356 11.679343360898761
H -3.342421338887698 -7.710755529043713 12.076307225854036