194

C -5.0710522388059704 1.0783507462686561 0.47044029850746183
C -3.8153522388059704 0.1782507462686569 0.19534029850746193
C -4.11845223880597 -1.3219492537313435 0.5608402985074619
C -2.96945223880597 -2.3874492537313436 0.7034402985074619
C -2.52015223880597 0.7359507462686565 0.7384402985074618
C -2.20305223880597 0.7852507462686571 2.097440298507462
C -1.5755522388059702 1.205650746268656 -0.18965970149253808
C -0.9533522388059701 1.2695507462686564 2.508640298507462
H -2.91125223880597 0.4298507462686567 2.840840298507462
C -0.32655223880597006 1.6562507462686575 0.21554029850746192
H -1.7850522388059702 1.178550746268657 -1.2573597014925382
C 0.004447761194029898 1.6956507462686563 1.569740298507462
H -0.7158522388059702 1.2676507462686573 3.5705402985074617
H 0.3943477611940298 1.9193507462686572 -0.5551597014925382
C -1.76045223880597 -2.1592492537313435 -0.1734597014925381
C -0.5287522388059701 -1.936549253731343 0.464840298507462
C -1.8068522388059702 -2.121249253731343 -1.5681597014925381
C 0.6114477611940299 -1.614449253731343 -0.2582597014925381
H -0.4544522388059702 -1.954049253731343 1.5506402985074619
C -0.6479522388059701 -1.8270492537313432 -2.2998597014925384
H -2.74345223880597 -2.290549253731343 -2.092259701492538
C 0.5698477611940298 -1.5506492537313434 -1.6506597014925382
H 1.5072477611940298 -1.351949253731343 0.2991402985074618
H -0.7173522388059701 -1.7640492537313435 -3.3840597014925375
C 1.7791477611940298 -1.082849253731343 -2.4255597014925376
H 1.4739477611940297 -0.9102492537313429 -3.464259701492538
H 2.1252477611940295 -0.1337492537313434 -2.0010597014925384
C 1.3965477611940298 2.0964507462686566 1.997440298507462
H 1.51704776119403 1.8448507462686567 3.057640298507462
H 2.1256477611940294 1.5207507462686571 1.4165402985074618
C 3.94864776119403 -1.4275492537313434 -3.522959701492538
H 4.81734776119403 -2.087049253731343 -3.615159701492538
H 3.4305477611940303 -1.3641492537313429 -4.484459701492538
H 4.26984776119403 -0.441449253731343 -3.176459701492538
C 2.60904776119403 -3.4296492537313434 -2.8992597014925376
H 1.9825477611940296 -3.869549253731343 -2.119359701492538
H 2.06294776119403 -3.373349253731343 -3.845759701492538
H 3.5215477611940305 -4.019849253731343 -3.0234597014925377
C 3.7281477611940304 -2.060049253731343 -1.156659701492538
H 3.9048477611940298 -1.032549253731343 -0.8295597014925382
H 3.12924776119403 -2.623249253731343 -0.4404597014925382
H 4.68244776119403 -2.5769492537313434 -1.3005597014925383
C 3.1110477611940297 3.755250746268656 2.588740298507462
H 3.40124776119403 4.809350746268656 2.534540298507462
H 2.9823477611940303 3.461750746268656 3.634840298507462
H 3.86514776119403 3.1392507462686563 2.091540298507462
C 1.99744776119403 3.9574507462686572 0.40494029850746194
H 2.67914776119403 3.230350746268657 -0.04295970149253803
H 1.03214776119403 3.981150746268657 -0.10175970149253821
H 2.4399477611940297 4.958250746268657 0.368240298507462
C 0.7418477611940297 4.4992507462686575 2.475440298507462
H -0.18475223880597014 4.424250746268656 1.901240298507462
H 0.57844776119403 4.189650746268656 3.511940298507462
H 1.1210477611940297 5.524350746268658 2.4432402985074617
N 3.00114776119403 -2.025349253731343 -2.490159701492538
N 1.7831477611940298 3.586450746268657 1.862540298507462
C -3.55075223880597 -3.8435492537313434 0.6444402985074619
H -2.62515223880597 -2.2736492537313433 1.7424402985074618
H -4.67195223880597 -1.3478492537313436 1.5102402985074619
H -4.83415223880597 -1.6757492537313432 -0.1945597014925382
H -3.7169522388059697 0.17335074626865676 -0.900559701492538
H -3.9132522388059705 -4.043149253731343 -0.34225970149253815
H -4.35435223880597 -3.9354492537313432 1.3449402985074619
H -2.78115223880597 -4.545049253731343 0.8904402985074619
H -5.24235223880597 1.138950746268657 1.5249402985074618
H -5.92805223880597 0.6501507462686567 -0.006059701492538094
H -4.89895223880597 2.059650746268657 0.08004029850746197
C -0.8596731867667577 3.307687198044546 -3.235151401330045
O -1.7298963955425593 2.8891315789950154 -3.9830138614589177
O -0.7049030933007341 2.9621268957244418 -2.0581782666625807
O 0.0008861809871607562 4.141601496383055 -3.539573644271601
O -0.6137969301742265 9.330568964291254 2.7745043307032873
H -0.09251287441979628 8.889043738938476 2.0872738268012916
H -0.7790914565143938 8.633503950205677 3.426991901466021
O 1.901835366521773 -0.007014772109624756 5.503372103985915
H 1.3196339108625392 -0.23460813049755602 4.762959999043017
H 2.61105308781236 0.5102650704749774 5.09301404988799
O 9.105831120062621 2.237581593662679 4.21697202281987
H 9.995911564721213 2.3769484053043994 3.8601792948261697
H 9.217934171088846 2.343387999950724 5.173632806294879
O 7.884385480952251 -1.657804255772327 7.215674751581005
H 7.32001942803258 -0.9803958846282308 7.617640190289077
H 8.3918425327279 -2.0122326144862126 7.961214705870881
O 6.358231488234564 -5.277543815747176 -1.9075626066271893
H 6.69592819608531 -5.562727685812837 -1.0452410594876427
H 6.373247194453875 -6.08475929071794 -2.4434167377435383
O 5.084127196738744 7.122040567402282 -3.457269677115461
H 5.109065006063751 7.2041463346727515 -4.422466084872451
H 5.687875440363673 7.813921582264031 -3.1478336354304455
O 7.291698798101885 4.693080816330104 -3.9837251292977425
H 7.38443514073204 4.662467283277166 -4.947794701086832
H 7.176443278213073 3.7649941518817136 -3.730085123170517
O -2.096715866791419 7.525734729479266 1.4149455250170813
H -2.285769600709735 6.6137130872190975 1.1476581017427936
H -2.9619818273498755 7.961205184584983 1.3896029811654946
O -2.7824230073576124 -5.9103351521197265 6.407548575525798
H -3.1168832534303488 -5.831034545186363 7.313537049203563
H -2.6162782435560477 -4.994418032133176 6.138376342416838
O 1.6862011255579799 -7.138740360630903 -0.5161491815784829
H 1.2652313089126541 -8.001314708969867 -0.3830429684957952
H 1.0698562960016458 -6.512063446824518 -0.10828027974692978
O -4.483387813425816 0.1253138537238132 5.343149037393668
H -4.732233726574519 0.022614944753616584 4.412291367013539
H -5.17930481014093 -0.34647826576772944 5.824889293100719
O 8.691478581189227 -6.406235586958019 -3.2192178905907154
H 9.289906892493288 -6.847943961379216 -2.598134462140113
H 8.963739810869203 -6.742855737199366 -4.086121946161249
O -4.40616771008551 -2.779964171386542 7.1736055648270804
H -4.43750907639107 -2.778145705351652 6.205110975869878
H -4.745414620661781 -3.6543626554824775 7.417123056960982
O -0.18410659587825617 -6.122880772561149 2.294333735459214
H 0.40852663480332563 -6.841028001700244 2.0259724713547382
H 0.24460373340968466 -5.745862235503488 3.0772937731218803
O -4.1540574497726475 2.1284821871745137 7.7202924231866765
H -4.126940000471283 1.34181772700103 7.155145514902334
H -3.2636003915675516 2.1749777182699437 8.099615949191694
O 5.092362658494831 11.891488416613782 -4.477947142224006
H 4.26905789744422 11.713968792010473 -3.9987567727338647
H 5.344882954453445 11.02776702335701 -4.837364447399409
O -0.20666162561718848 -5.369050225763915 -6.150942648274828
H -0.20995493692670908 -6.220333846612023 -6.613838649420175
H 0.248447875338203 -5.558064825097894 -5.316610120035188
O 9.412292261753903 3.911727597509869 -6.985712065746652
H 9.133530153280201 4.104204174272566 -7.893573184628285
H 9.042135400866682 4.64200471456061 -6.467406002739303
O 6.817183949645861 1.5704055814253153 -0.23150404567418503
H 7.282344110234706 0.9035991156009522 0.29571746283602685
H 7.414783964638688 2.3331529891120306 -0.22425432514378496
O -6.41405355629075 0.5157863814700836 -7.091603923116999
H -6.408007871576491 0.5346980456340567 -8.060403776314184
H -7.245720376910777 0.9527204782742278 -6.8541574263441
C 5.666235699651125 7.696057794929088 -9.780821407893631
O 5.801960800840298 6.512656243574416 -9.662678602532726
O 5.5305105984619525 8.879459346283761 -9.898964213254537
O 6.439807532141462 -10.835432486284498 8.919564260701812
H 6.650784687310346 -10.76621543691305 9.86278480594728
H 6.635705307648083 -9.952957632741002 8.570531112254642
O 10.531391267353534 -4.2586266867775 12.448920764463374
H 10.773440734093429 -3.934151863606826 11.568525681742386
H 10.684069531745743 -5.2140795383864385 12.396374211441017
O 9.85077573170991 -8.414653661520552 -10.973981929554636
H 9.992614575730075 -9.209114962438154 -10.437623522730117
H 10.745523467055381 -8.135222721223961 -11.219556325612343
O 19.06704975821916 -10.60810883060809 6.803913974486572
H 19.001458228459406 -10.576308898059617 5.837656310913502
H 19.38556025084482 -9.72556819169912 7.046060688405026
O -10.96422019148907 -13.717748814751399 8.220326911458029
H -10.872927943930781 -13.613488678202945 9.179369614554536
H -11.758086172087117 -14.264036358821283 8.118795298926802
O -5.759532815919271 11.902993897944059 9.026296923868244
H -6.2735585427060485 11.584516095589764 9.783473784653694
H -5.098838236692153 12.490755223817018 9.422505506672755
O 13.210287728220731 4.409261915144352 14.191419437507161
H 12.335509942679783 4.194020124125215 14.548353821145035
H 13.472804836617868 3.606995001015597 13.715589099473602
O -4.953942899738566 7.0702520321627205 -1.6657222951240138
H -5.20648903846728 7.034750812342258 -2.600563173618572
H -4.005912970144341 7.269644250811522 -1.6867921796959613
O -12.991373744372964 7.899871421930995 2.117309117949601
H -13.063411046108781 8.850076442694602 1.9415581504579307
H -12.140224486161886 7.809737261498604 2.5716027649114293
O 4.342424645083609 -7.752317118963427 15.06618262772983
H 3.633595268507439 -7.494277798139246 14.457952424014794
H 5.154724634225014 -7.535058094872826 14.584592357487507
O 7.835976675320437 9.789557694100614 11.300065833776692
H 8.373551143148259 10.550900412598985 11.565279546523877
H 7.418541670403674 9.499077873094318 12.124887896138201
O -11.246546308976317 -9.893265497962451 -4.470075173512716
H -11.434383631486527 -9.843139103543942 -3.520774461538477
H -12.118274186771858 -9.813729171920638 -4.88567885999041
O 11.648177280777226 -6.582222129585921 0.8042321528549783
H 10.798331197449617 -7.04695706510744 0.8316261532662539
H 12.004613304620797 -6.693290366402293 1.6984240517095177
O 5.47650137687706 -1.4409009207043626 -11.790696700750473
H 5.737102672752863 -1.5434490520919422 -10.863044717387762
H 4.5346368333758456 -1.2176352656451996 -11.745913073538642
O 11.06198918888056 8.60519778612814 5.536919516302907
H 11.11698874384754 8.517791793343925 4.573434903930274
H 10.146782590086183 8.881545240316429 5.695004652817614
O 11.849204163241327 4.4104766260765915 9.137301285315829
H 12.022769560631158 5.354362173476744 9.003426406649123
H 11.671167107138297 4.337629916571679 10.087016036106018
O 1.8926268741917145 1.5669993285782673 21.11147463906695
H 1.575642804926476 1.0541129710746073 21.870049645917746
H 1.6657232535650044 1.0175934569013165 20.346210057753154
O -1.2816724323448714 11.260122880841951 10.729962098464494
H -1.7073296834782796 10.39050261093072 10.769253924803717
H -0.5344527793405076 11.182840392312116 11.342050451098876
O -0.6460366705169536 20.461558790643313 -8.887361060932129
H -0.38204034924279107 21.294224715532874 -8.467908135347475
H -0.5581377428229652 20.63912683877686 -9.83588903157521
O 6.308004643876929 15.428477968650611 -5.730349302936741
H 7.218134274550048 15.42813105243918 -5.39773647708669
H 5.935546648727206 14.59958424593238 -5.393938567990066