194

C -5.0710522388059704 1.0783507462686561 0.47044029850746183
C -3.8153522388059704 0.1782507462686569 0.19534029850746193
C -4.11845223880597 -1.3219492537313435 0.5608402985074619
C -2.96945223880597 -2.3874492537313436 0.7034402985074619
C -2.52015223880597 0.7359507462686565 0.7384402985074618
C -2.20305223880597 0.7852507462686571 2.097440298507462
C -1.5755522388059702 1.205650746268656 -0.18965970149253808
C -0.9533522388059701 1.2695507462686564 2.508640298507462
H -2.91125223880597 0.4298507462686567 2.840840298507462
C -0.32655223880597006 1.6562507462686575 0.21554029850746192
H -1.7850522388059702 1.178550746268657 -1.2573597014925382
C 0.004447761194029898 1.6956507462686563 1.569740298507462
H -0.7158522388059702 1.2676507462686573 3.5705402985074617
H 0.3943477611940298 1.9193507462686572 -0.5551597014925382
C -1.76045223880597 -2.1592492537313435 -0.1734597014925381
C -0.5287522388059701 -1.936549253731343 0.464840298507462
C -1.8068522388059702 -2.121249253731343 -1.5681597014925381
C 0.6114477611940299 -1.614449253731343 -0.2582597014925381
H -0.4544522388059702 -1.954049253731343 1.5506402985074619
C -0.6479522388059701 -1.8270492537313432 -2.2998597014925384
H -2.74345223880597 -2.290549253731343 -2.092259701492538
C 0.5698477611940298 -1.5506492537313434 -1.6506597014925382
H 1.5072477611940298 -1.351949253731343 0.2991402985074618
H -0.7173522388059701 -1.7640492537313435 -3.3840597014925375
C 1.7791477611940298 -1.082849253731343 -2.4255597014925376
H 1.4739477611940297 -0.9102492537313429 -3.464259701492538
H 2.1252477611940295 -0.1337492537313434 -2.0010597014925384
C 1.3965477611940298 2.0964507462686566 1.997440298507462
H 1.51704776119403 1.8448507462686567 3.057640298507462
H 2.1256477611940294 1.5207507462686571 1.4165402985074618
C 3.94864776119403 -1.4275492537313434 -3.522959701492538
H 4.81734776119403 -2.087049253731343 -3.615159701492538
H 3.4305477611940303 -1.3641492537313429 -4.484459701492538
H 4.26984776119403 -0.441449253731343 -3.176459701492538
C 2.60904776119403 -3.4296492537313434 -2.8992597014925376
H 1.9825477611940296 -3.869549253731343 -2.119359701492538
H 2.06294776119403 -3.373349253731343 -3.845759701492538
H 3.5215477611940305 -4.019849253731343 -3.0234597014925377
C 3.7281477611940304 -2.060049253731343 -1.156659701492538
H 3.9048477611940298 -1.032549253731343 -0.8295597014925382
H 3.12924776119403 -2.623249253731343 -0.4404597014925382
H 4.68244776119403 -2.5769492537313434 -1.3005597014925383
C 3.1110477611940297 3.755250746268656 2.588740298507462
H 3.40124776119403 4.809350746268656 2.534540298507462
H 2.9823477611940303 3.461750746268656 3.634840298507462
H 3.86514776119403 3.1392507462686563 2.091540298507462
C 1.99744776119403 3.9574507462686572 0.40494029850746194
H 2.67914776119403 3.230350746268657 -0.04295970149253803
H 1.03214776119403 3.981150746268657 -0.10175970149253821
H 2.4399477611940297 4.958250746268657 0.368240298507462
C 0.7418477611940297 4.4992507462686575 2.475440298507462
H -0.18475223880597014 4.424250746268656 1.901240298507462
H 0.57844776119403 4.189650746268656 3.511940298507462
H 1.1210477611940297 5.524350746268658 2.4432402985074617
N 3.00114776119403 -2.025349253731343 -2.490159701492538
N 1.7831477611940298 3.586450746268657 1.862540298507462
C -3.55075223880597 -3.8435492537313434 0.6444402985074619
H -2.62515223880597 -2.2736492537313433 1.7424402985074618
H -4.67195223880597 -1.3478492537313436 1.5102402985074619
H -4.83415223880597 -1.6757492537313432 -0.1945597014925382
H -3.7169522388059697 0.17335074626865676 -0.900559701492538
H -3.9132522388059705 -4.043149253731343 -0.34225970149253815
H -4.35435223880597 -3.9354492537313432 1.3449402985074619
H -2.78115223880597 -4.545049253731343 0.8904402985074619
H -5.24235223880597 1.138950746268657 1.5249402985074618
H -5.92805223880597 0.6501507462686567 -0.006059701492538094
H -4.89895223880597 2.059650746268657 0.08004029850746197
C -0.47005336800219544 -1.9493655174912943 3.5897055712310086
O 0.6418907069938526 -1.456387100560429 3.7007377878238508
O -0.7562540548552819 -3.1256755371579787 3.8407341922617313
O -1.4812077584453371 -1.3482208208126158 3.2091267531884657
O 3.0110729324265013 1.4039625867298726 -7.8423215313227885
H 3.2400047095438183 0.6505170813155012 -7.27762916489945
H 3.810382707798453 1.5527291773209382 -8.369516304455784
O 2.817195864267682 4.51160670562403 -2.9103064923530764
H 2.393706183710747 5.29007560822455 -3.3022376279441765
H 2.1409624815245802 3.820481553399253 -2.9736814110993683
O -3.75228553381528 2.825617171258214 -1.7933522681064142
H -3.354531027958236 2.1900112893135386 -2.407163210341685
H -3.1621388999131996 3.592992758297247 -1.8360559355196806
O -8.072431289269643 -5.963959009282802 -3.312846333933917
H -8.642900528796645 -6.345329580980723 -2.6286762595399225
H -7.367784184538824 -6.620015221248782 -3.4225032937464257
O -3.840632949186731 -4.753398378155876 -5.509929269795039
H -3.693866044209777 -4.510945918537587 -4.583299010560792
H -4.64292479584233 -5.296258169997858 -5.485578017440625
O 4.240707340100879 -1.1811376410749346 4.587532373556425
H 4.519252168857187 -2.098657889096538 4.7273062257015805
H 4.26779016480512 -0.7906853750664928 5.473972158806903
O -4.845365899936714 -7.806130309215119 -2.6609829714965625
H -4.897813627603236 -8.739176070994423 -2.4047756351685474
H -5.644641604016275 -7.6633559937040765 -3.1898835179119294
O 1.611291450609302 0.00603644910710166 8.919702250586617
H 2.049620228677349 0.7438787496037107 9.369617774674467
H 2.28991358669429 -0.6849060800714333 8.887571858621746
O 2.2212820830570887 -7.865026110946914 -6.927282415559794
H 2.4135215793324636 -6.915774817740962 -6.957832625356423
H 1.6731587940137165 -8.018190330977262 -7.71154227428697
O -5.614262555391976 -1.5772667427579798 6.788127655298204
H -5.1976750688179205 -2.3250109541776336 7.242331152883056
H -6.486797118896934 -1.9140212647226595 6.534668049590406
O -4.679509238995559 -5.523552631819911 8.196286420628653
H -4.403442706077292 -5.654461913816201 7.2767118525866135
H -5.418390669474582 -4.899914051401132 8.132324736734896
O 0.8685521153812765 12.903231784261418 -0.4335799362712729
H 0.09648382328618244 12.324781141116457 -0.5245346650463372
H 1.0527680036183151 12.899857982693124 0.5177428629320344
O 6.17403208771902 -4.612847822276784 -5.828039770366765
H 6.281176626865879 -3.8809723202238717 -5.2020640087547
H 5.21468583346561 -4.681387009258181 -5.946018957505342
O 0.4911039868398588 7.757969672062243 5.799587478845678
H 0.925544182442805 6.939759189231108 5.515403244360876
H 1.2240128536370798 8.377115905925352 5.935471541057325
O -2.4380829267584456 -7.101896991172431 1.7150983214778246
H -3.201166019006956 -6.540199182980123 1.5122014917923725
H -1.6952751927602083 -6.651728241106459 1.2855093189690974
O 6.983285725711985 1.3217811276557485 2.5445942584790933
H 6.10279250393606 1.6509369649143366 2.7798717076858743
H 7.2262382735516475 1.8410434757309604 1.7633755837985454
O 11.822837511186506 3.6399108609855904 -0.7752377644771142
H 10.990127525152193 4.084801755838329 -0.5569866986472682
H 11.569507161103294 2.711486846285803 -0.8884390319410684
O -7.249659154448792 -7.3561286924688805 -0.6969870544928973
H -7.95927569278713 -6.699802450101185 -0.6288138266375496
H -6.441124264778082 -6.842831290998844 -0.5494775492761832
O -2.779672573390915 4.387427268470379 -5.415177482342137
H -2.8563285860066148 4.369141098903766 -6.380970849803544
H -2.3785541139146993 3.5330106516890845 -5.196001364264838
O -1.7406940469179084 0.9997770080347091 -3.8099328496979443
H -0.9276118725147268 1.2010739131322028 -3.322752913159127
H -1.4301583058752925 0.5364347829750815 -4.602298598775923
C 4.19473073900975 -7.822893012189537 13.198733990312965
O 4.530253896323757 -8.913863287771656 12.838142357018016
O 3.8592075816957436 -6.73192273660742 13.559325623607915
O 8.992873328793609 7.805497103623692 5.82102474434177
H 9.514645216893527 7.353550346554892 5.140976523651765
H 9.133151019599662 8.746432240554531 5.63683684612079
O -3.105313810576177 9.888376972175134 -1.8908724116958544
H -3.8318621095451735 10.50629603532929 -2.0619599844647363
H -2.4299896746590672 10.135557805688649 -2.5403344131180874
O -11.018341805631822 13.326224408575866 10.381971794888196
H -11.22613371955775 13.479638002659918 11.315917267898914
H -10.058641389972818 13.450571635767844 10.33222419621647
O -3.574974107944012 0.9710858260106681 15.502439074632598
H -3.677273085941779 0.9972630052405365 14.539206480038652
H -4.4803536703802145 0.8653563891770304 15.831180733704993
O -9.095573575574372 -0.15287682750459908 12.87845338114156
H -9.379521059626304 -0.8097454581105259 12.225104480992126
H -8.209801525634468 0.10464862922886731 12.581720405253337
O -3.43696649062144 13.745684848059918 -8.107645828689881
H -4.154095795688402 14.390116978993545 -8.204600175340872
H -3.8564558289172433 12.896281062877105 -8.311370763524232
O 7.553914362856089 12.27103138088764 3.7232635502408025
H 7.743884819783266 12.081309426362479 2.7921974073884086
H 7.966253092836433 11.535604457927946 4.200847005821325
O -2.1565037149186517 8.218129738656213 1.86802216514353
H -2.2936022260123368 8.817585628666347 1.119140337958455
H -3.0212251825492316 8.186909007573213 2.304191849635081
O 8.795778199484673 0.7088898793630283 -13.799300676280108
H 9.175392836612188 -0.04817520851973889 -13.3284370687592
H 8.644242570412304 1.3655442525604227 -13.103022045570835
O -13.199803310858297 -15.056446477912596 -3.932342409945013
H -14.129369929716825 -15.223361679197025 -4.149166240701943
H -12.71068147903779 -15.501889648387579 -4.64036935845315
O 19.950109603590537 2.835232591768508 10.974248695861112
H 20.426467001911263 2.0027309205264694 11.112059992003076
H 19.506326900949226 2.9938919311268823 11.820916323192368
O -15.900470424031152 -9.8550649723325 -10.435977809270838
H -15.642546558749679 -10.787760499193286 -10.486194248731906
H -15.12569101368734 -9.418351129266355 -10.051322341505601
O -9.675034838060778 -2.575522056625205 14.141250481061606
H -8.748159898947023 -2.839434754445338 14.242345941257275
H -9.727211179881495 -1.7236257300794682 14.600066590709131
O -6.487989433966835 1.7447840019061474 14.957128736539136
H -6.497376263477534 2.5880718089177934 14.479902460148967
H -6.752441288970836 1.094750587155267 14.28893436332708
O 21.104919708178628 7.1728843770152615 -5.964112002241541
H 20.484115413525878 6.816966010901522 -6.617481347484818
H 20.758153671190296 6.857859514187707 -5.11589351877641
O 8.397645766627411 -15.465286232088438 4.035416395838018
H 7.778721682368837 -15.886837405524034 3.4204408329090823
H 7.959498242039853 -15.54009643444456 4.896457698344018
O -17.829332378861828 -8.596459288810713 6.750096253871781
H -17.27819588957141 -8.499722804257974 5.958984390966782
H -17.27917863443149 -9.114439582733608 7.356717401621206
O -16.667097278820837 -2.9265867200400564 -0.026893959410564605
H -16.30726892156825 -2.8160901907144194 -0.9198001287385047
H -17.574647317650427 -3.231508275598702 -0.17635203472302408
O -5.409734812748111 -2.2412104669714976 11.514609114010616
H -5.542503034835251 -2.766416530437396 12.318038356073956
H -4.832547952033132 -2.7938006105746855 10.966465514841023
O 4.660980211166052 7.986842198247936 0.8961547418734779
H 5.131785598702855 8.453726219713863 0.1895226208471783
H 3.9554141008521575 7.511093671286626 0.432687647711806