194

C -5.0710522388059704 1.0783507462686561 0.47044029850746183
C -3.8153522388059704 0.1782507462686569 0.19534029850746193
C -4.11845223880597 -1.3219492537313435 0.5608402985074619
C -2.96945223880597 -2.3874492537313436 0.7034402985074619
C -2.52015223880597 0.7359507462686565 0.7384402985074618
C -2.20305223880597 0.7852507462686571 2.097440298507462
C -1.5755522388059702 1.205650746268656 -0.18965970149253808
C -0.9533522388059701 1.2695507462686564 2.508640298507462
H -2.91125223880597 0.4298507462686567 2.840840298507462
C -0.32655223880597006 1.6562507462686575 0.21554029850746192
H -1.7850522388059702 1.178550746268657 -1.2573597014925382
C 0.004447761194029898 1.6956507462686563 1.569740298507462
H -0.7158522388059702 1.2676507462686573 3.5705402985074617
H 0.3943477611940298 1.9193507462686572 -0.5551597014925382
C -1.76045223880597 -2.1592492537313435 -0.1734597014925381
C -0.5287522388059701 -1.936549253731343 0.464840298507462
C -1.8068522388059702 -2.121249253731343 -1.5681597014925381
C 0.6114477611940299 -1.614449253731343 -0.2582597014925381
H -0.4544522388059702 -1.954049253731343 1.5506402985074619
C -0.6479522388059701 -1.8270492537313432 -2.2998597014925384
H -2.74345223880597 -2.290549253731343 -2.092259701492538
C 0.5698477611940298 -1.5506492537313434 -1.6506597014925382
H 1.5072477611940298 -1.351949253731343 0.2991402985074618
H -0.7173522388059701 -1.7640492537313435 -3.3840597014925375
C 1.7791477611940298 -1.082849253731343 -2.4255597014925376
H 1.4739477611940297 -0.9102492537313429 -3.464259701492538
H 2.1252477611940295 -0.1337492537313434 -2.0010597014925384
C 1.3965477611940298 2.0964507462686566 1.997440298507462
H 1.51704776119403 1.8448507462686567 3.057640298507462
H 2.1256477611940294 1.5207507462686571 1.4165402985074618
C 3.94864776119403 -1.4275492537313434 -3.522959701492538
H 4.81734776119403 -2.087049253731343 -3.615159701492538
H 3.4305477611940303 -1.3641492537313429 -4.484459701492538
H 4.26984776119403 -0.441449253731343 -3.176459701492538
C 2.60904776119403 -3.4296492537313434 -2.8992597014925376
H 1.9825477611940296 -3.869549253731343 -2.119359701492538
H 2.06294776119403 -3.373349253731343 -3.845759701492538
H 3.5215477611940305 -4.019849253731343 -3.0234597014925377
C 3.7281477611940304 -2.060049253731343 -1.156659701492538
H 3.9048477611940298 -1.032549253731343 -0.8295597014925382
H 3.12924776119403 -2.623249253731343 -0.4404597014925382
H 4.68244776119403 -2.5769492537313434 -1.3005597014925383
C 3.1110477611940297 3.755250746268656 2.588740298507462
H 3.40124776119403 4.809350746268656 2.534540298507462
H 2.9823477611940303 3.461750746268656 3.634840298507462
H 3.86514776119403 3.1392507462686563 2.091540298507462
C 1.99744776119403 3.9574507462686572 0.40494029850746194
H 2.67914776119403 3.230350746268657 -0.04295970149253803
H 1.03214776119403 3.981150746268657 -0.10175970149253821
H 2.4399477611940297 4.958250746268657 0.368240298507462
C 0.7418477611940297 4.4992507462686575 2.475440298507462
H -0.18475223880597014 4.424250746268656 1.901240298507462
H 0.57844776119403 4.189650746268656 3.511940298507462
H 1.1210477611940297 5.524350746268658 2.4432402985074617
N 3.00114776119403 -2.025349253731343 -2.490159701492538
N 1.7831477611940298 3.586450746268657 1.862540298507462
C -3.55075223880597 -3.8435492537313434 0.6444402985074619
H -2.62515223880597 -2.2736492537313433 1.7424402985074618
H -4.67195223880597 -1.3478492537313436 1.5102402985074619
H -4.83415223880597 -1.6757492537313432 -0.1945597014925382
H -3.7169522388059697 0.17335074626865676 -0.900559701492538
H -3.9132522388059705 -4.043149253731343 -0.34225970149253815
H -4.35435223880597 -3.9354492537313432 1.3449402985074619
H -2.78115223880597 -4.545049253731343 0.8904402985074619
H -5.24235223880597 1.138950746268657 1.5249402985074618
H -5.92805223880597 0.6501507462686567 -0.006059701492538094
H -4.89895223880597 2.059650746268657 0.08004029850746197
C 0.4081869692944981 2.4080009111360416 -3.448776911855479
O 0.6331820947977895 3.092994426491955 -2.462908474375049
O 0.4431595949092437 2.8086943153466257 -4.617901873260266
O 0.11070112497700807 1.208086718068993 -3.429896072177022
O 6.284639524660232 -4.470339563483508 -4.502426203231277
H 5.605895314755802 -5.107766024454181 -4.770681979078911
H 6.289563010334081 -3.8181685297115395 -5.21909254560939
O -3.9383247977268807 4.8860359150465404 6.03426844291247
H -4.184111617457548 4.621584992267977 5.135034376838318
H -4.7346848728316555 5.318952636812095 6.376840606251645
O 6.015287379707976 2.9705830424821458 1.8249417188560408
H 6.791803136752838 3.023862261192935 1.2477485442475613
H 5.7623855557696855 3.895747812549599 1.96304588235129
O -5.385143681766053 7.487175815378549 -0.9999153229099822
H -5.713023722713876 7.868930696270768 -0.17183003348441606
H -6.176949673296291 7.113406971501432 -1.4150081648424566
O 0.020629523122949522 7.195543051606224 -5.237576357301937
H -0.017503256036876524 7.177335834810255 -4.269494880715336
H -0.8250909465250914 6.810594706645283 -5.512410131118271
O 2.2056727745247 -8.89967006740287 9.13053367113546
H 1.3761224079149785 -8.48742416878419 8.84616267185854
H 2.4025868084120834 -9.537874392452505 8.428478084272042
O -7.195688828116431 5.401826512249221 -6.051518605864667
H -6.916870494241473 5.378230409428993 -5.123795092350597
H -8.16355533314059 5.3940272985304585 -6.0053066483462025
O 3.2151198259387046 3.333812316870732 7.953838785394634
H 3.293558329497544 4.264638058275684 8.211478450813942
H 3.7087070071404242 3.2788621155653566 7.121784631970809
O -4.661943027741702 -6.974515318109098 6.622664224730848
H -4.078520897757225 -7.74520167197387 6.554631004088268
H -4.317236790911615 -6.360515491694295 5.956973780340192
O 2.9042201872050146 5.753754587332245 5.9558110057569085
H 2.864577472701951 6.157627902174595 5.075877964187789
H 2.145956810603088 6.135552477698277 6.4229608392325215
O 7.705957756785812 -5.8276641748775555 6.447750780863486
H 6.959607561270355 -5.233091484070106 6.616309547766984
H 8.36507347049902 -5.260517327605865 6.020114400434846
O -2.6105467422298623 -8.854644349448982 -2.823101834516198
H -2.001313755730329 -8.288735693541144 -2.3255579487840485
H -3.3475490336922578 -9.000121886206587 -2.2110349648212946
O -6.346172638908312 2.7106725948968466 -5.02664086679741
H -5.59835159079868 2.1046098374875775 -5.1380813037387965
H -6.382437343064061 3.1943927425033123 -5.865486284220713
O -1.8079024390963478 4.854743796364907 6.718269340066461
H -1.5551774021392175 4.092789752828066 7.260969485757316
H -1.1258832973439523 4.888952854957216 6.0307800129539935
O -7.9400645629050715 6.201300410592591 -2.6005588061916676
H -8.728935045784844 6.611687317602894 -2.2155480210238347
H -7.680764267475985 6.810703762108707 -3.3079150504217667
O 6.470178430847586 2.014674452283784 -5.417545822690764
H 6.177299853329824 1.7564676736113443 -4.530686896379045
H 5.656756915808234 2.0071776625469884 -5.94409228912533
O -3.7119374077240317 1.9905545458158678 4.9790900873468065
H -3.458616584673062 2.707860478037372 5.579313476684992
H -2.902354532870527 1.4662505270014616 4.886123378794785
O -2.2549117370877676 8.151795300572143 -2.341140303105486
H -1.6136877628904864 7.611527983216968 -1.855434221598895
H -2.875180001463496 8.449039061251243 -1.658589666708692
O 0.2806977699035258 4.64368534742463 -8.589193208487595
H 0.9568456861667545 3.9517004183966664 -8.534895784689981
H 0.19800900199053806 4.962162240498433 -7.67776741307741
O -2.13422642374321 -7.354108419460156 1.1648998856837296
H -1.5740598734405085 -7.741728243865218 0.4757470256082885
H -3.029666442744121 -7.4129790760561205 0.7992725310402251
C -8.509403796180113 1.7430411496093425 11.556463757755832
O -8.785502996525214 1.5254710158105187 12.70068870318726
O -8.233304595835012 1.9606112834081657 10.412238812324402
O -7.039235656374698 8.731568503783363 5.636802668275031
H -7.305136322684758 8.700476908775848 4.70551457897304
H -7.865113606921169 8.912917569392324 6.1100891264627935
O -15.141936134806967 -0.5499719219181484 3.048913324094311
H -15.53596006627097 0.2276628818923513 3.47199323408326
H -15.55633513088513 -0.5752490634483999 2.173358367243817
O 17.012745365219388 8.97221161213918 12.312985776887977
H 16.984612621262677 8.430315285583225 11.510163083584757
H 17.629236827506812 9.686354245916373 12.091851157598096
O 5.167273090222173 23.414184119948892 7.874558334165591
H 5.695163407511696 22.602189804069987 7.905613137213249
H 5.148336314177163 23.64520539958153 6.933690377877397
O -1.4265131055369036 17.05507917743675 10.202090607374192
H -0.8633304720862873 17.84332472482285 10.223576307400323
H -2.3233301967419138 17.410585000240513 10.111004608586217
O -8.683386839058581 -0.08386781604695148 3.297125618273209
H -8.148290732888004 0.5813224054567669 2.8386918899362534
H -8.681417897427654 -0.8421708955568201 2.693855772205379
O 10.454389763725047 -13.304888255569502 -9.091993620299897
H 10.466310094736242 -12.894555322331822 -8.214239584986391
H 11.391674940776596 -13.398344791047569 -9.319423427396247
O -9.973773240575262 -1.9980161026478918 14.730805945900887
H -10.923507763921142 -2.0357015360498227 14.919357000457158
H -9.778185092794326 -1.0493759077842872 14.702716776515414
O -14.77328688361543 4.7416907126952 -1.7695711315214526
H -14.822916094071294 4.810006578790053 -0.804253960427289
H -15.233700503103519 5.534119351892588 -2.084274317189556
O -12.142359769983115 -19.931473915578756 5.729601346127294
H -13.082951865447399 -20.03614053814782 5.5215177932690915
H -11.833013457875376 -20.837839694868077 5.877140756518578
O 9.660912808918734 13.686276656720835 -2.2329889813460198
H 8.910284414862772 13.17418366044812 -1.8964104108674413
H 10.414123405458904 13.083068618267784 -2.1448084624928088
O -13.508400031536432 8.440487280562333 6.226101070329902
H -13.477423306110182 9.17820429589318 5.598581027085691
H -12.821355466569798 7.83491717074231 5.909531090479673
O 6.837028301901771 -4.327677253369637 -14.039051430669108
H 7.1995574198268315 -3.445077957155097 -14.208043968605189
H 6.0855559951821565 -4.163160719518642 -13.449826832894068
O -0.9575258023283926 -4.649280010221845 -8.876637757304547
H -1.843967965931614 -4.626524464687842 -9.267367628998395
H -1.01647701740698 -4.038289234255708 -8.12685314141472
O 13.430296854430184 3.2906956937216676 9.603098097481292
H 13.3499868495512 2.589023218168045 10.266553745634798
H 12.51630803722241 3.459344778310428 9.328974270376627
O 9.924222300147937 -2.0257192138230815 -1.477328068046777
H 9.244821685414049 -2.2098335133981717 -2.143274076587401
H 9.497161528055418 -2.2539124565164443 -0.6379777923996985
O 13.946672700681034 3.203019695522544 15.892781701980857
H 14.824078294546215 3.577872934406237 15.723631384060688
H 14.128383959260201 2.2833928943490154 16.138198713145364
O -17.0572682959009 7.163887234446637 -7.518313826279864
H -17.146458436659692 7.687817396765101 -8.328566663796881
H -16.85954969642586 7.821684075091627 -6.8348135584239555
O 4.845045441260443 11.674338247642995 11.701155753530749
H 5.806299848945168 11.789425133180998 11.742536055412842
H 4.5723491179392655 12.245205882876068 10.967187905058822
O -10.443447387188753 -10.48146820620738 -8.472765136793418
H -9.845111599307582 -9.72626721086689 -8.57588205333651
H -10.233306140190507 -10.828105394015317 -7.5926257951897025