194

C -5.0710522388059704 1.0783507462686561 0.47044029850746183
C -3.8153522388059704 0.1782507462686569 0.19534029850746193
C -4.11845223880597 -1.3219492537313435 0.5608402985074619
C -2.96945223880597 -2.3874492537313436 0.7034402985074619
C -2.52015223880597 0.7359507462686565 0.7384402985074618
C -2.20305223880597 0.7852507462686571 2.097440298507462
C -1.5755522388059702 1.205650746268656 -0.18965970149253808
C -0.9533522388059701 1.2695507462686564 2.508640298507462
H -2.91125223880597 0.4298507462686567 2.840840298507462
C -0.32655223880597006 1.6562507462686575 0.21554029850746192
H -1.7850522388059702 1.178550746268657 -1.2573597014925382
C 0.004447761194029898 1.6956507462686563 1.569740298507462
H -0.7158522388059702 1.2676507462686573 3.5705402985074617
H 0.3943477611940298 1.9193507462686572 -0.5551597014925382
C -1.76045223880597 -2.1592492537313435 -0.1734597014925381
C -0.5287522388059701 -1.936549253731343 0.464840298507462
C -1.8068522388059702 -2.121249253731343 -1.5681597014925381
C 0.6114477611940299 -1.614449253731343 -0.2582597014925381
H -0.4544522388059702 -1.954049253731343 1.5506402985074619
C -0.6479522388059701 -1.8270492537313432 -2.2998597014925384
H -2.74345223880597 -2.290549253731343 -2.092259701492538
C 0.5698477611940298 -1.5506492537313434 -1.6506597014925382
H 1.5072477611940298 -1.351949253731343 0.2991402985074618
H -0.7173522388059701 -1.7640492537313435 -3.3840597014925375
C 1.7791477611940298 -1.082849253731343 -2.4255597014925376
H 1.4739477611940297 -0.9102492537313429 -3.464259701492538
H 2.1252477611940295 -0.1337492537313434 -2.0010597014925384
C 1.3965477611940298 2.0964507462686566 1.997440298507462
H 1.51704776119403 1.8448507462686567 3.057640298507462
H 2.1256477611940294 1.5207507462686571 1.4165402985074618
C 3.94864776119403 -1.4275492537313434 -3.522959701492538
H 4.81734776119403 -2.087049253731343 -3.615159701492538
H 3.4305477611940303 -1.3641492537313429 -4.484459701492538
H 4.26984776119403 -0.441449253731343 -3.176459701492538
C 2.60904776119403 -3.4296492537313434 -2.8992597014925376
H 1.9825477611940296 -3.869549253731343 -2.119359701492538
H 2.06294776119403 -3.373349253731343 -3.845759701492538
H 3.5215477611940305 -4.019849253731343 -3.0234597014925377
C 3.7281477611940304 -2.060049253731343 -1.156659701492538
H 3.9048477611940298 -1.032549253731343 -0.8295597014925382
H 3.12924776119403 -2.623249253731343 -0.4404597014925382
H 4.68244776119403 -2.5769492537313434 -1.3005597014925383
C 3.1110477611940297 3.755250746268656 2.588740298507462
H 3.40124776119403 4.809350746268656 2.534540298507462
H 2.9823477611940303 3.461750746268656 3.634840298507462
H 3.86514776119403 3.1392507462686563 2.091540298507462
C 1.99744776119403 3.9574507462686572 0.40494029850746194
H 2.67914776119403 3.230350746268657 -0.04295970149253803
H 1.03214776119403 3.981150746268657 -0.10175970149253821
H 2.4399477611940297 4.958250746268657 0.368240298507462
C 0.7418477611940297 4.4992507462686575 2.475440298507462
H -0.18475223880597014 4.424250746268656 1.901240298507462
H 0.57844776119403 4.189650746268656 3.511940298507462
H 1.1210477611940297 5.524350746268658 2.4432402985074617
N 3.00114776119403 -2.025349253731343 -2.490159701492538
N 1.7831477611940298 3.586450746268657 1.862540298507462
C -3.55075223880597 -3.8435492537313434 0.6444402985074619
H -2.62515223880597 -2.2736492537313433 1.7424402985074618
H -4.67195223880597 -1.3478492537313436 1.5102402985074619
H -4.83415223880597 -1.6757492537313432 -0.1945597014925382
H -3.7169522388059697 0.17335074626865676 -0.900559701492538
H -3.9132522388059705 -4.043149253731343 -0.34225970149253815
H -4.35435223880597 -3.9354492537313432 1.3449402985074619
H -2.78115223880597 -4.545049253731343 0.8904402985074619
H -5.24235223880597 1.138950746268657 1.5249402985074618
H -5.92805223880597 0.6501507462686567 -0.006059701492538094
H -4.89895223880597 2.059650746268657 0.08004029850746197
C 1.6820079980492755 -2.7765988628438 3.364594333204828
O 1.7344998258554531 -3.410726402857292 2.3220482336917154
O 1.5873171021529497 -3.2696258556409745 4.494456927818759
O 1.7154554611049293 -1.543697586176857 3.4511049892430496
O 8.181086659399764 -5.389538751359735 -8.006790738843335
H 8.279899155010012 -6.335490633775775 -8.192205095797776
H 7.341056841734898 -5.154782452262157 -8.428929732266045
O 2.507782725008899 5.997162840923476 -4.806830745259437
H 2.595529968778081 6.02039624398016 -3.842088299270188
H 2.965573671395176 5.182742466492916 -5.063947153563424
O 4.805273490154464 -5.276220831734761 5.684920864553113
H 5.5688437120858465 -5.872628320110285 5.66988820380188
H 4.098938407579954 -5.81016936159469 6.078559865269355
O -2.4835171555328373 0.25957626009234147 -7.979091480447404
H -1.7045031641140498 0.5572239570398247 -8.472559216551428
H -3.073819503744209 -0.09107452430830065 -8.662867108409788
O 7.278034081392484 -7.408502872995948 3.385368996265849
H 7.349307885446796 -7.804999395858667 4.26666231242875
H 6.475913237020299 -7.805720027072486 3.0141781722534704
O 7.562421009510236 -2.9147391441757824 2.3887435357607427
H 7.458091243779678 -2.9961080969017395 1.4288155434535648
H 8.032850898653418 -3.7230188155999904 2.6424000682275963
O -8.583652007539579 -2.3524012044488893 3.5149279181912516
H -9.169497618384547 -3.089093096521542 3.745226275345835
H -8.883420783815126 -2.0814757212236366 2.634189587238509
O 1.6357419344514241 8.122220820903616 -1.0417815239617307
H 1.7779673041352713 8.974282279322857 -0.6027706218251573
H 2.4208967777908024 8.012013036003802 -1.598870440049811
O -4.163272086085526 -2.4121215338247315 -8.167624301263569
H -4.499651809387301 -2.7103399290546077 -7.309206088853127
H -3.9444814137208346 -3.234159159905306 -8.631678961076418
O 9.68395620610363 2.4039798546457356 -0.6541237446912498
H 9.708040825320843 2.3686043075097563 -1.6221815212118422
H 9.973567925989979 1.5207257662599432 -0.38035520859870875
O 9.928867491530983 -0.07106552329867188 -7.616721834905659
H 9.896870261790003 0.1810834655419047 -6.681647280864335
H 8.998350994325836 -0.08792444979570169 -7.886567660010349
O 8.013106174471913 0.23916758872924118 -2.212794564448459
H 7.082488368720428 0.3239976936344369 -1.9564321065493664
H 7.979559559609258 -0.21056724227785567 -3.0704513435333523
O -4.189856391190738 -1.83881890369651 -5.05231167657449
H -4.355327004962438 -1.7408179226681155 -4.102584010032397
H -3.627095279823772 -1.0809806477397366 -5.271270699319415
O -2.672120660983771 8.645518906439618 4.2371443404156715
H -1.9861775930689083 8.456583537920718 3.579304777146499
H -3.4770384958281624 8.268999514406257 3.8507476907507905
O -4.1649104046285546 4.1996094782585285 -1.3871095972737897
H -4.167402901259412 4.972046107850867 -0.802043107356126
H -3.301943018433437 3.7884812551148803 -1.2282926624138295
O 5.43519658709911 -2.1346230984539196 4.520511081405614
H 4.752993438858559 -2.7994232523711844 4.6982945924021715
H 5.280417210228556 -1.8813062428749194 3.598103438616846
O -4.479977893564706 -5.970254795879669 -3.8090970796360386
H -3.8714859165963214 -6.684793931613856 -3.5679774114848337
H -3.9917817663934416 -5.461359271510794 -4.473665985764143
O 3.994425515984258 -0.7750642190724886 7.405123343799113
H 3.14314000344221 -1.2372004747706309 7.431776940279249
H 4.072323759736337 -0.3770312692682902 8.285159467370477
O 1.2369543869652544 5.518675137994521 -8.976794159525607
H 1.8115242521361354 5.444964318793274 -8.200003620145653
H 1.493427455647132 6.362409242249943 -9.378411229204174
O -2.294915392336402 -4.557426911021181 5.086737144381308
H -3.032969458916598 -3.9461320074420843 5.230132027702364
H -1.5146430440569947 -4.049291517023073 5.35494495220376
C 10.716791149845166 -7.48755348267787 7.879526019668877
O 11.254085832349174 -7.363046883983373 8.941896382741211
O 10.179496467341156 -7.612060081372368 6.817155656596542
O 21.23253198120267 -6.528868110197279 9.134766463909518
H 21.21941931782755 -6.944612120212318 10.009953491404687
H 20.321330877381723 -6.225332508515304 9.006156078609372
O 12.90139053125484 6.257576768751294 -11.159466242905308
H 13.004451826608234 6.26603018878602 -12.12293615213434
H 12.1351500081321 6.829179668742522 -11.001012685841381
O 2.8382288474327986 17.453830591196763 -1.0985958553454083
H 2.5126021343022513 18.218006140184848 -0.599626586828248
H 2.812901779610663 16.727650456363147 -0.4575163784405829
O -12.17694119965699 -13.128252981853718 6.014001009964685
H -12.633894621802941 -13.196349642800282 6.865777842038107
H -11.472934268266776 -13.791523411839949 6.072383554962443
O -7.804451186036881 3.668045180805362 15.06828648916821
H -7.67812648428954 2.810823415076098 15.502083989147694
H -6.911491375146626 4.041677593519276 15.023749531431754
O -7.526691270738178 14.336989185454993 12.424555166864177
H -6.843883350509774 14.830676575436906 11.94600165685071
H -7.086576122007392 14.062149405567755 13.242921646840731
O 7.844179563506399 5.1030184133475025 8.949661159236662
H 7.746796770186291 5.752221044268283 9.662416301252987
H 8.795897150812618 4.922359931812538 8.926037201873184
O 8.93677743418572 8.014365610766912 -0.3795845519732213
H 9.136640695462217 8.54305200924136 0.40750675515705126
H 8.486084332095587 8.635911622475243 -0.9707852178708833
O -3.4484774142319674 -8.300344646040045 7.917463425689492
H -3.5065295891412753 -7.493501703760482 8.450944229825835
H -2.5013375544180647 -8.504585761084755 7.9042877975452885
O -3.583172533387007 15.850770460062655 14.347253461959092
H -3.992945868081968 15.717436185386534 13.479339213735475
H -4.246372346207542 16.352532099006464 14.844609682649285
O -8.02955387645816 -10.154066997101568 5.1600516257177995
H -7.5617827256568 -9.515380390002324 5.718833269376602
H -8.496111502137408 -9.60247950038261 4.514267482459503
O -8.683997742590357 11.732918978357896 -4.881407611603357
H -9.146277798211594 12.048011321355126 -5.672597426034343
H -9.398719614787174 11.484497479635937 -4.276080139340438
O -0.24878750714973563 5.228172247843301 11.518035619836038
H -0.9848980384487458 4.751139520971702 11.929798197183878
H 0.40957105023055895 4.53850007649253 11.345182357534032
O 8.931164222239033 13.99395871833394 -2.652618173605225
H 9.154906792047573 13.564409393764258 -1.813336339465344
H 8.068371804672278 14.401618474372842 -2.484199909169273
O -10.103766387711133 -10.348066429145145 -10.289428755306862
H -10.11359817144358 -10.306225897849755 -9.321379137327721
H -10.26497614364067 -9.433140498087935 -10.564899079611013
O -2.579352100504972 9.33590387633264 -1.3439765759896456
H -2.5936063286176183 9.388076943511178 -0.37648386545271484
H -2.448916629537721 10.253741646646386 -1.6259736674623195
O -20.20291415623175 -1.2986247633353134 3.2225825259607417
H -20.095068101015507 -1.397086659859653 2.264646285803221
H -21.131307274746796 -1.528317176917712 3.3784335989009104
O 1.1774368558862371 12.728036279423632 -13.170726368353963
H 1.2529144188045955 12.703463536847751 -12.204979675520795
H 0.22179995738471048 12.722865939735687 -13.331017759607183
O -5.484910057834401 -2.8606222480327825 -11.487412538434029
H -4.728755142193432 -2.836763527737789 -10.881914510429079
H -6.2454964793587155 -2.6647454612527657 -10.919871769771923
O 7.3914680495175356 -18.181131323044287 -2.990303558251309
H 7.099122947945939 -18.229128179313975 -2.0676996344165346
H 8.324810290169607 -17.92843182503121 -2.927238751754272