194

C -5.0710522388059704 1.0783507462686561 0.47044029850746183
C -3.8153522388059704 0.1782507462686569 0.19534029850746193
C -4.11845223880597 -1.3219492537313435 0.5608402985074619
C -2.96945223880597 -2.3874492537313436 0.7034402985074619
C -2.52015223880597 0.7359507462686565 0.7384402985074618
C -2.20305223880597 0.7852507462686571 2.097440298507462
C -1.5755522388059702 1.205650746268656 -0.18965970149253808
C -0.9533522388059701 1.2695507462686564 2.508640298507462
H -2.91125223880597 0.4298507462686567 2.840840298507462
C -0.32655223880597006 1.6562507462686575 0.21554029850746192
H -1.7850522388059702 1.178550746268657 -1.2573597014925382
C 0.004447761194029898 1.6956507462686563 1.569740298507462
H -0.7158522388059702 1.2676507462686573 3.5705402985074617
H 0.3943477611940298 1.9193507462686572 -0.5551597014925382
C -1.76045223880597 -2.1592492537313435 -0.1734597014925381
C -0.5287522388059701 -1.936549253731343 0.464840298507462
C -1.8068522388059702 -2.121249253731343 -1.5681597014925381
C 0.6114477611940299 -1.614449253731343 -0.2582597014925381
H -0.4544522388059702 -1.954049253731343 1.5506402985074619
C -0.6479522388059701 -1.8270492537313432 -2.2998597014925384
H -2.74345223880597 -2.290549253731343 -2.092259701492538
C 0.5698477611940298 -1.5506492537313434 -1.6506597014925382
H 1.5072477611940298 -1.351949253731343 0.2991402985074618
H -0.7173522388059701 -1.7640492537313435 -3.3840597014925375
C 1.7791477611940298 -1.082849253731343 -2.4255597014925376
H 1.4739477611940297 -0.9102492537313429 -3.464259701492538
H 2.1252477611940295 -0.1337492537313434 -2.0010597014925384
C 1.3965477611940298 2.0964507462686566 1.997440298507462
H 1.51704776119403 1.8448507462686567 3.057640298507462
H 2.1256477611940294 1.5207507462686571 1.4165402985074618
C 3.94864776119403 -1.4275492537313434 -3.522959701492538
H 4.81734776119403 -2.087049253731343 -3.615159701492538
H 3.4305477611940303 -1.3641492537313429 -4.484459701492538
H 4.26984776119403 -0.441449253731343 -3.176459701492538
C 2.60904776119403 -3.4296492537313434 -2.8992597014925376
H 1.9825477611940296 -3.869549253731343 -2.119359701492538
H 2.06294776119403 -3.373349253731343 -3.845759701492538
H 3.5215477611940305 -4.019849253731343 -3.0234597014925377
C 3.7281477611940304 -2.060049253731343 -1.156659701492538
H 3.9048477611940298 -1.032549253731343 -0.8295597014925382
H 3.12924776119403 -2.623249253731343 -0.4404597014925382
H 4.68244776119403 -2.5769492537313434 -1.3005597014925383
C 3.1110477611940297 3.755250746268656 2.588740298507462
H 3.40124776119403 4.809350746268656 2.534540298507462
H 2.9823477611940303 3.461750746268656 3.634840298507462
H 3.86514776119403 3.1392507462686563 2.091540298507462
C 1.99744776119403 3.9574507462686572 0.40494029850746194
H 2.67914776119403 3.230350746268657 -0.04295970149253803
H 1.03214776119403 3.981150746268657 -0.10175970149253821
H 2.4399477611940297 4.958250746268657 0.368240298507462
C 0.7418477611940297 4.4992507462686575 2.475440298507462
H -0.18475223880597014 4.424250746268656 1.901240298507462
H 0.57844776119403 4.189650746268656 3.511940298507462
H 1.1210477611940297 5.524350746268658 2.4432402985074617
N 3.00114776119403 -2.025349253731343 -2.490159701492538
N 1.7831477611940298 3.586450746268657 1.862540298507462
C -3.55075223880597 -3.8435492537313434 0.6444402985074619
H -2.62515223880597 -2.2736492537313433 1.7424402985074618
H -4.67195223880597 -1.3478492537313436 1.5102402985074619
H -4.83415223880597 -1.6757492537313432 -0.1945597014925382
H -3.7169522388059697 0.17335074626865676 -0.900559701492538
H -3.9132522388059705 -4.043149253731343 -0.34225970149253815
H -4.35435223880597 -3.9354492537313432 1.3449402985074619
H -2.78115223880597 -4.545049253731343 0.8904402985074619
H -5.24235223880597 1.138950746268657 1.5249402985074618
H -5.92805223880597 0.6501507462686567 -0.006059701492538094
H -4.89895223880597 2.059650746268657 0.08004029850746197
C 4.135362450660167 1.5490364782519677 -1.6264380001696757
O 4.966538095279739 1.4093505974992984 -0.742463791773532
O 2.921317375072771 1.6977907862438353 -1.4458883549308807
O 4.379651620875249 1.5632583757415743 -2.8383657716756443
O 3.9851065898155924 -1.4507839037654173 2.80736347528447
H 3.9940607141224387 -1.2076421221482776 1.8694033190998154
H 4.919416665223738 -1.4299909403193318 3.063477278040107
O -5.57893854987781 -2.695317992373872 -5.49559979074023
H -5.514530443842834 -3.59744009662756 -5.14775692133813
H -6.288872504480716 -2.7480755880852064 -6.152997965742745
O 8.637346388872785 -3.628553960199893 -1.048479057105276
H 8.932466585958213 -4.283578378117923 -0.39823722662725647
H 7.805902362199559 -3.292516776735994 -0.6814071484292494
O -5.211120401150824 -6.343321138419008 3.5213225616105297
H -5.654969924005458 -5.540944318830513 3.2080233478407423
H -5.684233701354779 -7.061826017002681 3.075366858741304
O -4.800299709096793 2.1889092581017464 -6.109533297447482
H -4.424384795205241 2.5229554436136423 -5.281240788511864
H -4.032266274284727 2.0900027202720928 -6.692031438290293
O -1.8104781756752408 -4.431876267449699 4.084191434714777
H -2.4303400149625616 -3.7090815445790257 4.2639313737535085
H -0.9385512433388723 -4.0320238552414835 4.221389894683396
O -4.633187811369569 8.070292184451796 0.3795518130600626
H -4.39828888452505 7.218047692004822 -0.01727204731263976
H -4.755355653411019 7.865438026442263 1.3187385552030406
O 6.009040218176448 -6.693917415188221 3.467530837876177
H 6.134636395010297 -7.265425173874027 4.239911468800235
H 5.13628628256387 -6.297434286076447 3.6091770185606293
O -8.003022437683878 0.6337425194276896 5.465921736631036
H -8.90845130723034 0.6362565572490428 5.120726721160587
H -7.592933689750504 -0.13491467345607333 5.041710370745477
O -6.556800792001341 -6.730754929525193 -2.195562100236296
H -6.164695271634041 -6.840898329464289 -1.3163072741208257
H -7.466658652970037 -7.046015500653903 -2.08725056149241
O -2.945110911206365 -2.9704538294932754 -7.520398742809657
H -2.9137682475460993 -2.738061601726946 -6.580197250145194
H -3.8838042102195773 -3.143227427594151 -7.687629477087087
O 2.6305398755847245 -8.907156438393965 3.9617212961346415
H 2.1151697491825496 -8.970317044616799 3.1435698874493228
H 1.9771253189184934 -9.054595049397491 4.661916424239674
O -0.41443834362798837 -5.166417217744686 8.743247612195745
H -0.2243633618525931 -6.0919355233917365 8.958316726936326
H 0.42547839598748904 -4.711198199227061 8.90535085088503
O -3.7177246264116874 -8.586486969865241 2.347546932825333
H -3.8537600864068584 -7.847462997778969 1.735741997240686
H -2.790217157566852 -8.501369765151619 2.614842464024016
O 0.08309394849257545 -6.322136854052519 -6.203882048980779
H -0.6790924442330755 -5.835498727012208 -6.552052399462493
H -0.2638632679995432 -7.211065761074783 -6.03539456432911
O -1.6680510748455706 -0.545186533132425 -5.0590607236695
H -1.951669253500621 -0.3785379489816508 -4.147602367496857
H -0.7690897274234594 -0.18517216194017405 -5.0939905486915205
O -8.5420994007827 5.871206157845921 -0.6053436180091463
H -8.088664801068138 5.648834375287981 0.22164804519169934
H -9.015657370001644 6.69115705209737 -0.3994666520671597
O 6.011245013279776 0.552976026665311 -5.991076897149927
H 5.171441907319028 0.2589096579052518 -6.374773484159709
H 6.261641017679908 1.3162488600667757 -6.532997894225837
O 3.927760300940009 4.3494064542081965 7.511759713792957
H 3.0004632530195225 4.516457845110426 7.737992723355184
H 4.109532806809789 3.4790458386676617 7.896977962745056
O 5.63072767407087 -5.953234070741837 0.2605022892839033
H 5.954983698189031 -5.073460207677848 0.015914191469336814
H 4.673783693581753 -5.832489490718201 0.3534587785708867
C 5.378939794017797 7.758498447580435 11.78442652534368
O 4.779867179846094 6.906752021021595 12.374730078690371
O 5.978012408189501 8.610244874139275 11.19412297199699
O 3.965481434189905 12.922940017179926 8.661017056757405
H 3.0785436696835626 13.047844497794994 9.030757005254689
H 4.25602791509658 13.820850843939073 8.441242549770248
O 15.854820498906683 -10.791522410856413 7.008288603746997
H 16.169877040097624 -10.09427024653568 6.413691133097434
H 16.02120983272134 -11.610392387403946 6.517647701047521
O 6.446906184565684 5.451609643654691 -6.943810031766736
H 6.453104065168535 5.860092334061196 -7.822485645866896
H 5.789622286211479 5.965779936974712 -6.451297361136323
O -10.55224610847989 7.588261894176226 7.448399043291687
H -10.437201998402987 7.7385281967104484 8.398742269689027
H -10.851069152555187 8.445801428167755 7.110327038725851
O 5.473830652806182 17.696664075353684 -1.2067352948334986
H 5.21259222142127 17.1113359995294 -1.933449050392995
H 6.42482199991762 17.538434757929508 -1.1090578402871567
O -1.4192564256633902 -8.010580343645996 7.213590315475136
H -0.5833080947825744 -7.5271280042631705 7.13339317997235
H -1.1774833574026506 -8.818636731083323 7.690615055384425
O -12.715100819326947 -10.630135954633056 -5.692920652618762
H -11.879830390638466 -10.871123305244323 -6.120957759309203
H -12.473127561147468 -10.50105685835163 -4.763539421083943
O 8.069825074069842 2.6608976441402112 13.158952534984204
H 8.244085396659893 2.857810061759986 14.09159726726866
H 7.590529533705182 3.440611293055446 12.840700504382925
O -15.927409168376768 -4.194804757667575 14.573220247362451
H -15.998612451547093 -4.180814757713284 13.606937820084049
H -16.846327574515044 -4.254908605923695 14.874780248995778
O 8.29568013585084 14.97140480523204 -15.9962643782281
H 7.960509111045248 15.176616546198916 -16.881993390059662
H 7.654564588079845 14.335392940371378 -15.64495012223675
O -0.539664965154353 7.321696811937575 -17.686260269940973
H -0.9054523379875254 6.6872656949877 -18.32081847264703
H -0.21565904735260677 6.76687089390045 -16.960898077513143
O 1.9973289212620244 -19.827248516287717 -7.168822190822869
H 1.8508024565622456 -19.74240763413604 -6.214726086251474
H 2.3350584321598866 -18.957964668327318 -7.431969133506704
O -4.857265692491747 3.8733166627400513 -11.577996063193638
H -4.5653877585420135 2.9731391857338982 -11.369537102090806
H -5.478646403088959 4.08860038192237 -10.86630731306987
O -2.3577089498906854 -12.715980607680864 -7.00638212698494
H -3.233693289317559 -12.77742730348938 -7.416068711526196
H -1.7687011669956823 -12.499315816888682 -7.744682976517224
O -10.774483907864093 -4.866350263779371 -4.13646746786473
H -9.807370669028987 -4.807613212185898 -4.150934635520446
H -10.958271007771794 -5.772792010005366 -4.425513496909041
O 6.915084342437337 -2.0372283982198716 -11.224416561249063
H 6.927038044328405 -1.996749349838105 -10.256332932344408
H 7.1922722404305635 -1.1503122350892152 -11.49920472162664
O -9.855680860433727 -5.110329838321791 -12.292885281230063
H -10.782541641875651 -4.875014038618472 -12.136287314656878
H -9.524945048582445 -5.355253215388212 -11.415623458040741
O -16.607418182456232 -6.827522544675192 10.175308776557365
H -15.89290533034137 -7.171515585771255 9.61843578498732
H -16.865489889799015 -7.5861803556902165 10.720101639905511
O -9.493423950690639 4.779497088122299 -16.994924558832118
H -9.447744895586123 4.411515874086988 -17.890173466645948
H -9.793026586066771 4.0355622088147785 -16.45108533578418
O -9.38171394869085 -5.598255169924471 3.7825953066641875
H -9.984629671046903 -6.085685806532653 4.363862339216029
H -9.96002472414821 -4.980262889921154 3.3107858820590748