194

C -5.0710522388059704 1.0783507462686561 0.47044029850746183
C -3.8153522388059704 0.1782507462686569 0.19534029850746193
C -4.11845223880597 -1.3219492537313435 0.5608402985074619
C -2.96945223880597 -2.3874492537313436 0.7034402985074619
C -2.52015223880597 0.7359507462686565 0.7384402985074618
C -2.20305223880597 0.7852507462686571 2.097440298507462
C -1.5755522388059702 1.205650746268656 -0.18965970149253808
C -0.9533522388059701 1.2695507462686564 2.508640298507462
H -2.91125223880597 0.4298507462686567 2.840840298507462
C -0.32655223880597006 1.6562507462686575 0.21554029850746192
H -1.7850522388059702 1.178550746268657 -1.2573597014925382
C 0.004447761194029898 1.6956507462686563 1.569740298507462
H -0.7158522388059702 1.2676507462686573 3.5705402985074617
H 0.3943477611940298 1.9193507462686572 -0.5551597014925382
C -1.76045223880597 -2.1592492537313435 -0.1734597014925381
C -0.5287522388059701 -1.936549253731343 0.464840298507462
C -1.8068522388059702 -2.121249253731343 -1.5681597014925381
C 0.6114477611940299 -1.614449253731343 -0.2582597014925381
H -0.4544522388059702 -1.954049253731343 1.5506402985074619
C -0.6479522388059701 -1.8270492537313432 -2.2998597014925384
H -2.74345223880597 -2.290549253731343 -2.092259701492538
C 0.5698477611940298 -1.5506492537313434 -1.6506597014925382
H 1.5072477611940298 -1.351949253731343 0.2991402985074618
H -0.7173522388059701 -1.7640492537313435 -3.3840597014925375
C 1.7791477611940298 -1.082849253731343 -2.4255597014925376
H 1.4739477611940297 -0.9102492537313429 -3.464259701492538
H 2.1252477611940295 -0.1337492537313434 -2.0010597014925384
C 1.3965477611940298 2.0964507462686566 1.997440298507462
H 1.51704776119403 1.8448507462686567 3.057640298507462
H 2.1256477611940294 1.5207507462686571 1.4165402985074618
C 3.94864776119403 -1.4275492537313434 -3.522959701492538
H 4.81734776119403 -2.087049253731343 -3.615159701492538
H 3.4305477611940303 -1.3641492537313429 -4.484459701492538
H 4.26984776119403 -0.441449253731343 -3.176459701492538
C 2.60904776119403 -3.4296492537313434 -2.8992597014925376
H 1.9825477611940296 -3.869549253731343 -2.119359701492538
H 2.06294776119403 -3.373349253731343 -3.845759701492538
H 3.5215477611940305 -4.019849253731343 -3.0234597014925377
C 3.7281477611940304 -2.060049253731343 -1.156659701492538
H 3.9048477611940298 -1.032549253731343 -0.8295597014925382
H 3.12924776119403 -2.623249253731343 -0.4404597014925382
H 4.68244776119403 -2.5769492537313434 -1.3005597014925383
C 3.1110477611940297 3.755250746268656 2.588740298507462
H 3.40124776119403 4.809350746268656 2.534540298507462
H 2.9823477611940303 3.461750746268656 3.634840298507462
H 3.86514776119403 3.1392507462686563 2.091540298507462
C 1.99744776119403 3.9574507462686572 0.40494029850746194
H 2.67914776119403 3.230350746268657 -0.04295970149253803
H 1.03214776119403 3.981150746268657 -0.10175970149253821
H 2.4399477611940297 4.958250746268657 0.368240298507462
C 0.7418477611940297 4.4992507462686575 2.475440298507462
H -0.18475223880597014 4.424250746268656 1.901240298507462
H 0.57844776119403 4.189650746268656 3.511940298507462
H 1.1210477611940297 5.524350746268658 2.4432402985074617
N 3.00114776119403 -2.025349253731343 -2.490159701492538
N 1.7831477611940298 3.586450746268657 1.862540298507462
C -3.55075223880597 -3.8435492537313434 0.6444402985074619
H -2.62515223880597 -2.2736492537313433 1.7424402985074618
H -4.67195223880597 -1.3478492537313436 1.5102402985074619
H -4.83415223880597 -1.6757492537313432 -0.1945597014925382
H -3.7169522388059697 0.17335074626865676 -0.900559701492538
H -3.9132522388059705 -4.043149253731343 -0.34225970149253815
H -4.35435223880597 -3.9354492537313432 1.3449402985074619
H -2.78115223880597 -4.545049253731343 0.8904402985074619
H -5.24235223880597 1.138950746268657 1.5249402985074618
H -5.92805223880597 0.6501507462686567 -0.006059701492538094
H -4.89895223880597 2.059650746268657 0.08004029850746197
C 0.7712448570266217 -1.3894463630358693 4.90608880396978
O 1.332928251102107 -1.4313495979914193 3.8223308133094567
O -0.27849492420559385 -1.9787694685942983 5.187826506547035
O 1.1656561088443784 -0.7512244484417294 5.888820169385244
O -2.6183434065022757 8.022725227713291 -2.3260673269597945
H -2.0556196367680415 7.915139103823728 -1.5445722586308166
H -3.5093711838707113 7.822222070421307 -2.002292824915842
O 1.7948703895370572 4.788856573317282 6.730960641315378
H 1.3471594157015954 3.956518427337996 6.944819126195142
H 2.5522654055214784 4.515447306204847 6.191922510271758
O -0.5320253709205482 -3.874941177249652 -3.760543138191127
H 0.05908347651179793 -4.324777137661599 -4.382801361204264
H -0.9870233079244399 -4.5990111587080875 -3.3048442424573516
O 8.45830351722018 5.202167015830861 -8.023110251016117
H 9.387321295500778 5.398412347770429 -7.829768340840092
H 8.40382959235176 4.237108154866213 -7.954875870510083
O 5.37640745502058 -3.223385912834221 -8.144018927072729
H 5.383798894050882 -3.067518552252551 -7.187662252272803
H 4.487606477828608 -2.9520216589146235 -8.418529781024361
O 6.778239065017476 -3.471100031254002 6.805060707577163
H 7.0557698445348205 -2.810618279783095 6.152597774304766
H 7.381659067369874 -4.2146247218105675 6.656678499769769
O -2.4091585554376516 5.6156419160659095 -3.7400916756049734
H -2.12883676871635 5.947011331871215 -4.606452664487915
H -2.3696930440808437 4.652020570508778 -3.834104015752465
O 5.642327594256208 6.689853493904699 3.184267215414536
H 6.459377556367914 7.185596319229448 3.0241554811403346
H 5.094001518899573 6.885921934694404 2.409762453705298
O -3.198676253545499 5.041038133365786 -0.00873191085835412
H -2.312776395071337 5.363319104620725 -0.23297234704780223
H -3.5824435557754017 4.796883104222976 -0.8643445123220395
O -1.5695915077938931 11.38579703606982 -2.1458735211399236
H -1.455291370920662 10.973327728992459 -3.0152249496945
H -0.7183832929159832 11.817247677537294 -1.9777757424464864
O 4.29586244384965 -7.305434320077473 2.1333635590777233
H 4.028129574548652 -7.862947114478027 1.3873971042853228
H 4.073288228280492 -6.407198007471801 1.8459715105093297
O 4.233899978353208 6.671305499598812 6.088469324959088
H 4.548286058223417 6.118959709986262 5.357003072572055
H 4.537956677413741 7.5617319494118265 5.8568398675712094
O 0.6495356269002448 5.659496622812818 -6.535289302119841
H 1.021233208746449 6.00794874491445 -7.359540103243235
H -0.24215530165928495 5.372702081598701 -6.7834789944006175
O 0.9107081881333516 6.4723885451345184 5.6378431396107604
H 0.45129738227871075 6.369738767336549 6.484821351539508
H 0.29768929091286456 6.9968890889897075 5.10112258341211
O 5.759572325102294 7.52593004335996 -5.7269918017820505
H 4.815208371986282 7.403645706705643 -5.547574350111054
H 6.184306719232515 6.794652273077758 -5.253921551783255
O -2.3492024881772813 5.034664385430461 6.739140920443611
H -2.44067733083321 4.526316702671845 5.9192736485666195
H -3.160277387468638 4.834757628698716 7.230218043360683
O -2.3428434559749878 5.701514068213175 10.026009509640755
H -1.7771753421427734 4.915543955939515 9.990825358293343
H -1.7839403161552245 6.40828218547508 9.669543448112211
O 6.207114498680049 1.970347153328622 3.8649976083162283
H 6.024330066792766 2.225633764037954 4.781723278706333
H 6.9689389498377246 1.3756448187548749 3.935101696434116
O -1.0812466756074663 8.7969223932932 -4.985496984538477
H -1.403842306064191 8.293977265146 -4.222643385095422
H -0.5984051789684284 9.538118989281484 -4.589954775009898
O 3.625030709811899 -3.231447047653197 5.420955064787496
H 4.467752554687721 -3.159642439123768 5.893851826526278
H 3.5569322231888973 -2.3954351006598027 4.935765859524259
C 0.5634817268885328 -1.741920831832168 -18.15621657061547
O -0.435234154403787 -1.6179477391042032 -17.50813052846214
O 1.5621976081808526 -1.8658939245601331 -18.8043026127688
O -14.16477548880821 -0.5811940201060342 -13.59109440084311
H -14.099972372338184 -0.4468964353867797 -14.548555664672799
H -15.044106351028546 -0.2418812990008945 -13.366136501797394
O -12.809394908773895 7.240899410718064 1.0011306665888595
H -12.314358786726913 7.925976580668976 1.475025028214671
H -12.151930818847744 6.548228220013304 0.8370894024958622
O 14.872597782628835 -2.120722116864706 7.342661941182903
H 14.531887107236424 -2.5090431574198293 6.522850766560456
H 14.213684490222663 -2.3661579375532935 8.009412625707018
O 20.40337203914411 -7.896535171402277 4.938045484034163
H 20.07183898657313 -7.382492932373096 4.186504554711722
H 19.605913706154098 -8.2915438759254 5.321438591426243
O 16.50463065463137 1.8983760839544521 8.060284115012122
H 17.20602556609741 2.0477332597564244 7.408590192141879
H 16.50408783345941 0.9377716520328949 8.187566380146894
O -1.5273568883088764 13.20431052121187 -15.061301495724955
H -1.3383982890561459 12.639591985516255 -15.825732643775746
H -1.1541223884198484 12.716396037064946 -14.311903464934757
O 1.7573650892134827 11.148917389254777 11.746298728000689
H 1.7187870708135315 10.81115046418521 10.838888899022963
H 2.2394157977354996 11.985501475825751 11.664346761522586
O 6.913548675303417 5.715839843073854 -0.7979376035657513
H 7.57130411373747 5.090334507898813 -0.4587205406429269
H 6.526131960710623 6.104219446890575 0.000831147008086397
O -5.46035850002316 19.583514546685322 -1.8355819788195427
H -5.524839324258962 19.80475361003732 -2.7767848565526063
H -6.294482446979856 19.128965380570612 -1.6443119053689252
O -9.019396764427764 -1.8304043301893667 10.754183068795374
H -9.41941022613059 -1.0017816745368942 11.058059823246854
H -9.379076905270143 -1.950743908566154 9.86249336578221
O -13.65114511714691 -4.4153463301689335 -14.91872420568319
H -13.954759857490025 -5.323359790052425 -14.769402395431657
H -13.12600496806704 -4.474724354556119 -15.730921237409017
O 1.6408537584336322 13.110789120159573 -4.550295126705227
H 2.2690361725029913 12.747981208758722 -3.9078586465930316
H 2.204967812625743 13.484023245049492 -5.244149265685891
O -4.064694382693261 1.6224733449663278 21.02743694882522
H -4.697586142103863 1.3703493692540603 20.338344154898888
H -3.3335710288255136 0.9967276990704752 20.914021904093243
O 8.132102674108015 8.179960099540022 -2.408262932283258
H 8.200095740940306 8.050200629409163 -3.3661286742711933
H 7.5404411200461645 8.941874872814909 -2.3166964099588183
O 8.049945307542043 -11.29141030048479 -12.845199575003324
H 8.983518831238053 -11.172324334686426 -12.614491175711734
H 7.648643746478989 -11.628743727627242 -12.030260828642175
O -10.584174522328363 4.080922002956925 -13.514897093084171
H -10.730129522509184 4.277953388251655 -12.577430758738739
H -11.04754433142937 4.794323850963699 -13.978910204509074
O 2.5244488565294887 15.206068914496601 -12.586087462816167
H 3.1740955731857112 15.323859721217726 -13.295348928208005
H 2.973933246274186 15.546568673167505 -11.79806104065705
O 1.183542873673527 -4.599628765640243 -11.624200601953204
H 1.1927716413665614 -4.458595695429134 -10.665559970718693
H 0.6984280907345974 -5.4312657940210185 -11.73376996217816
O -6.466411826055107 -11.105678808887756 -7.860836327833516
H -7.15592781257846 -11.767755635554249 -7.702124838583504
H -5.640523937270163 -11.60902769429154 -7.801582306694723
O -1.30590837000397 2.8261981178246636 -6.7770322175666005
H -1.9032556262840143 2.100150041921198 -6.542516111954259
H -1.2146888362475572 2.752830255374219 -7.738935589907459