194

C -5.0710522388059704 1.0783507462686561 0.47044029850746183
C -3.8153522388059704 0.1782507462686569 0.19534029850746193
C -4.11845223880597 -1.3219492537313435 0.5608402985074619
C -2.96945223880597 -2.3874492537313436 0.7034402985074619
C -2.52015223880597 0.7359507462686565 0.7384402985074618
C -2.20305223880597 0.7852507462686571 2.097440298507462
C -1.5755522388059702 1.205650746268656 -0.18965970149253808
C -0.9533522388059701 1.2695507462686564 2.508640298507462
H -2.91125223880597 0.4298507462686567 2.840840298507462
C -0.32655223880597006 1.6562507462686575 0.21554029850746192
H -1.7850522388059702 1.178550746268657 -1.2573597014925382
C 0.004447761194029898 1.6956507462686563 1.569740298507462
H -0.7158522388059702 1.2676507462686573 3.5705402985074617
H 0.3943477611940298 1.9193507462686572 -0.5551597014925382
C -1.76045223880597 -2.1592492537313435 -0.1734597014925381
C -0.5287522388059701 -1.936549253731343 0.464840298507462
C -1.8068522388059702 -2.121249253731343 -1.5681597014925381
C 0.6114477611940299 -1.614449253731343 -0.2582597014925381
H -0.4544522388059702 -1.954049253731343 1.5506402985074619
C -0.6479522388059701 -1.8270492537313432 -2.2998597014925384
H -2.74345223880597 -2.290549253731343 -2.092259701492538
C 0.5698477611940298 -1.5506492537313434 -1.6506597014925382
H 1.5072477611940298 -1.351949253731343 0.2991402985074618
H -0.7173522388059701 -1.7640492537313435 -3.3840597014925375
C 1.7791477611940298 -1.082849253731343 -2.4255597014925376
H 1.4739477611940297 -0.9102492537313429 -3.464259701492538
H 2.1252477611940295 -0.1337492537313434 -2.0010597014925384
C 1.3965477611940298 2.0964507462686566 1.997440298507462
H 1.51704776119403 1.8448507462686567 3.057640298507462
H 2.1256477611940294 1.5207507462686571 1.4165402985074618
C 3.94864776119403 -1.4275492537313434 -3.522959701492538
H 4.81734776119403 -2.087049253731343 -3.615159701492538
H 3.4305477611940303 -1.3641492537313429 -4.484459701492538
H 4.26984776119403 -0.441449253731343 -3.176459701492538
C 2.60904776119403 -3.4296492537313434 -2.8992597014925376
H 1.9825477611940296 -3.869549253731343 -2.119359701492538
H 2.06294776119403 -3.373349253731343 -3.845759701492538
H 3.5215477611940305 -4.019849253731343 -3.0234597014925377
C 3.7281477611940304 -2.060049253731343 -1.156659701492538
H 3.9048477611940298 -1.032549253731343 -0.8295597014925382
H 3.12924776119403 -2.623249253731343 -0.4404597014925382
H 4.68244776119403 -2.5769492537313434 -1.3005597014925383
C 3.1110477611940297 3.755250746268656 2.588740298507462
H 3.40124776119403 4.809350746268656 2.534540298507462
H 2.9823477611940303 3.461750746268656 3.634840298507462
H 3.86514776119403 3.1392507462686563 2.091540298507462
C 1.99744776119403 3.9574507462686572 0.40494029850746194
H 2.67914776119403 3.230350746268657 -0.04295970149253803
H 1.03214776119403 3.981150746268657 -0.10175970149253821
H 2.4399477611940297 4.958250746268657 0.368240298507462
C 0.7418477611940297 4.4992507462686575 2.475440298507462
H -0.18475223880597014 4.424250746268656 1.901240298507462
H 0.57844776119403 4.189650746268656 3.511940298507462
H 1.1210477611940297 5.524350746268658 2.4432402985074617
N 3.00114776119403 -2.025349253731343 -2.490159701492538
N 1.7831477611940298 3.586450746268657 1.862540298507462
C -3.55075223880597 -3.8435492537313434 0.6444402985074619
H -2.62515223880597 -2.2736492537313433 1.7424402985074618
H -4.67195223880597 -1.3478492537313436 1.5102402985074619
H -4.83415223880597 -1.6757492537313432 -0.1945597014925382
H -3.7169522388059697 0.17335074626865676 -0.900559701492538
H -3.9132522388059705 -4.043149253731343 -0.34225970149253815
H -4.35435223880597 -3.9354492537313432 1.3449402985074619
H -2.78115223880597 -4.545049253731343 0.8904402985074619
H -5.24235223880597 1.138950746268657 1.5249402985074618
H -5.92805223880597 0.6501507462686567 -0.006059701492538094
H -4.89895223880597 2.059650746268657 0.08004029850746197
C -2.1166284030756435 0.655049696340219 -3.7848185262042993
O -2.1114845283711245 -0.17446064720384458 -4.681290293247987
O -1.1095050888243354 1.1242587959636139 -3.2424377422323154
O -3.1297674619417326 1.1536639694078534 -3.281249823351183
O -3.5975676733718513 1.4796481931243788 -6.66702628938905
H -3.3794332626282397 0.586721572057683 -6.360323199838338
H -4.409371285764789 1.7004774866670034 -6.186223562359302
O 1.3313143649574233 0.14384195070564654 4.756859226932513
H 1.775600774088793 -0.04408703052824303 5.597251779001811
H 1.9334431672537653 -0.21580064614375277 4.088233732147432
O 9.523684113551463 3.201767590218995 -3.3880077754960767
H 9.328521845790366 2.828625208916406 -2.515285706668789
H 9.474340611143788 4.159535753949084 -3.249417344313989
O 7.001535360835632 0.21814651453082634 -2.5596626416666877
H 6.4445605124917265 -0.427215299299859 -3.0203735102832785
H 7.88730065731429 -0.1736408413787185 -2.5894023727260516
O -4.386879914134451 -5.991558211003165 -4.386378875538309
H -4.483684869371868 -6.423121063362341 -5.2485561554553195
H -4.848355259287965 -6.584657166917816 -3.7746304970293068
O 4.819850043694325 2.87964027158419 -4.832612365917091
H 4.624360049719394 3.3055423079079107 -3.984462335196706
H 5.563962462044416 3.390554379530105 -5.185068643289206
O 6.724621346774251 -0.9902308516126537 3.2610921615823174
H 7.361482249213368 -1.7183421113645527 3.2042631085641937
H 6.698300807136274 -0.7754789323049938 4.2056295015783824
O 0.41866938782505525 -4.80404767709681 3.8497376546794335
H -0.25493967091798664 -5.46737589806313 4.0623731741698785
H 0.4627343605415848 -4.251989211498018 4.6448802035599455
O 1.861751114711698 8.308523016011586 4.474112898581491
H 2.505764340441088 8.357404694920227 3.7517384088237895
H 1.5229262300420483 7.40203794460419 4.424671446902485
O -3.4281933327911642 -3.93166778713299 -4.988414948785978
H -2.8549545747861202 -3.894180672618798 -5.768773455798131
H -4.128355981549312 -3.2901580590160386 -5.181286611596481
O 1.568456799171892 0.5485153290753266 -10.031507647717364
H 1.9684113530110015 0.5297495475068916 -9.149095296712753
H 0.6316401410567236 0.7272950644729681 -9.860118326028186
O 5.345471914945685 -6.531307040152657 3.7978664848952173
H 4.826741867948753 -6.940520186197565 3.0890427435133483
H 6.186357321913628 -7.01251811400452 3.780271626251467
O -1.7110203574547902 5.9415695709941865 -6.253606840807073
H -1.6953462971453255 5.931300042077707 -5.284784763483662
H -2.469354155632581 5.382982202374452 -6.481360976795262
O 4.51023545429745 2.977694148362168 5.792748212686768
H 4.601963304723973 2.2608247592633313 6.4382337952749396
H 4.5267508713381455 3.7822420078271297 6.332555518241557
O -8.766020315643505 -0.4307590314454346 -6.487637934245765
H -9.378372813702205 -1.1291351277943977 -6.763794779298813
H -7.975257712407256 -0.5866541312510175 -7.025553510781375
O -3.874659881358118 -0.8724986983226549 4.330065624044314
H -4.6703466564238285 -0.3675991685864377 4.555734358603792
H -3.150764751686174 -0.34809155194733055 4.7041443996621375
O -2.6849203932240404 -8.02858542565965 -0.4773503551685707
H -2.7151938892603997 -7.951638255496114 -1.4428191559806745
H -3.615760377267283 -8.105793859235447 -0.21940127842831958
O -0.7305174930279001 -6.897103615433312 -4.950067749738522
H -0.7492426936212793 -6.900771959725591 -5.918883143409004
H -1.497496756856643 -7.433503237929937 -4.699109191123365
O 7.396615921373674 0.7329802010177153 6.219022250582638
H 6.7110062083495325 0.287710774449383 6.739254714074166
H 7.239201922503886 1.6751193172368106 6.3819844024760215
O 3.956823401691995 9.162112647147335 -4.980752141204833
H 4.111424173566933 8.823930807542489 -4.085934281751215
H 4.74628114791391 8.891180798824802 -5.47300649090095
C 9.683404455906548 -1.3201757093911013 20.456999150404805
O 8.80680770641698 -1.6071492795050197 21.219916292786852
O 10.56000120539612 -1.0332021392771793 19.694082008022754
O 5.8785188628482965 13.45112584349607 15.357959966682209
H 6.2304747897391 13.843197269407913 14.544710694066554
H 5.849393674145775 14.192248520581762 15.98153902758177
O 12.013672448668391 -3.1283731001319595 -14.94244115015307
H 12.590279225258097 -3.9058491171784815 -14.987419200447691
H 12.259489601571174 -2.702656977532755 -14.10739525045781
O 8.20967738582359 1.3744317928935592 14.744919326693223
H 8.251516216659205 1.4756195344222771 15.7077162471799
H 9.132057195071411 1.2322761418050696 14.484210288385084
O 4.315447133950407 8.787321444234326 -18.41123233300141
H 4.405261356488124 8.997538704640652 -17.46957981441655
H 4.626292336338183 9.587680925898333 -18.86041147829093
O -17.517868545307042 -9.262325191165184 -7.942439916828261
H -17.161498563395227 -9.417305606751988 -7.0547750793604695
H -18.133956447450508 -8.524200853044563 -7.821733236787538
O -10.665454429209522 -6.870576017013417 -16.20353393027396
H -10.320030380049491 -7.1405925183376 -17.067675511367323
H -11.610333357880313 -7.079554419016931 -16.25347171106163
O -13.016217866305295 -6.67539906021279 -10.420532519682615
H -12.082191013035406 -6.883962837932922 -10.572395434490213
H -13.0948320363045 -5.746771129827241 -10.685922654169921
O 10.888178822798448 0.24118206836756856 7.349160810321986
H 10.411365219052708 -0.5841536897527664 7.1746986925114555
H 11.810906201541597 0.02577743643898467 7.146338293422348
O 4.2042980147124815 -6.449662381807222 14.118282881220479
H 4.0638749339125155 -6.824950152010924 13.236008658082241
H 3.5505195171260584 -6.902385690502035 14.671977044236543
O 10.218207948700071 -2.2951130862919946 -2.6184359940426982
H 10.05405792624896 -2.5273323844901068 -1.6921011061249012
H 9.533650345845082 -1.6396700666701483 -2.8202707797027173
O -9.690992147589172 11.439352925357792 -13.64644522679017
H -9.499778708797246 11.296819063854965 -14.585641093503
H -10.416199836754638 12.082020890802252 -13.6501382021168
O -13.998694484457456 8.359050030533727 6.161454925678319
H -14.078144056565561 8.273913645692772 7.123435652287773
H -14.862507055845143 8.69976354493982 5.884499898799154
O 5.400309088570537 21.162345107624038 0.3883075804494549
H 5.220539933179827 20.861271245300053 1.291637496424472
H 5.126371448266822 20.416217899262435 -0.1659615802183172
O 15.481929519371423 3.642175042428341 -4.451365797988931
H 15.926585747009648 3.2964969296890185 -5.239880121571912
H 16.177313103157996 4.1306257306219925 -3.985726945547157
O 1.4987921049895065 -4.391251464819381 -13.09111725364648
H 0.6078330640698608 -4.072827287168808 -12.881915467346502
H 1.5110943346099701 -4.433117661445818 -14.059134723027276
O 3.4883258887327138 -13.73569845328226 -2.0443879225351433
H 3.4506011325368924 -13.794103237098962 -1.0778823193970695
H 2.560358339510719 -13.788019232295373 -2.3184330063706025
O 11.558611292963873 -0.4743443100353293 3.37638967987252
H 12.02070977570014 -0.6088526029568893 4.217424678126558
H 10.893326127764375 0.20008390413260113 3.5801154200226906
O -11.977870669063627 -3.152564132664506 9.574303026396596
H -11.276728190517622 -2.7050576518705745 10.071399125079534
H -12.549720540606355 -2.4301226389168464 9.274256435300783
O 8.091671048636602 14.63118167150083 13.169375612363158
H 8.0305984449045 14.639965871562392 12.202338730024817
H 8.816383137902077 15.244360439893873 13.363710709462111
O 7.4526119602779985 -0.8618325107132258 -7.429544928390758
H 7.725534736969955 -0.6815528468818026 -8.341674172342286
H 8.15299808030603 -0.46207503655383775 -6.892315751013184