194

C -5.0710522388059704 1.0783507462686561 0.47044029850746183
C -3.8153522388059704 0.1782507462686569 0.19534029850746193
C -4.11845223880597 -1.3219492537313435 0.5608402985074619
C -2.96945223880597 -2.3874492537313436 0.7034402985074619
C -2.52015223880597 0.7359507462686565 0.7384402985074618
C -2.20305223880597 0.7852507462686571 2.097440298507462
C -1.5755522388059702 1.205650746268656 -0.18965970149253808
C -0.9533522388059701 1.2695507462686564 2.508640298507462
H -2.91125223880597 0.4298507462686567 2.840840298507462
C -0.32655223880597006 1.6562507462686575 0.21554029850746192
H -1.7850522388059702 1.178550746268657 -1.2573597014925382
C 0.004447761194029898 1.6956507462686563 1.569740298507462
H -0.7158522388059702 1.2676507462686573 3.5705402985074617
H 0.3943477611940298 1.9193507462686572 -0.5551597014925382
C -1.76045223880597 -2.1592492537313435 -0.1734597014925381
C -0.5287522388059701 -1.936549253731343 0.464840298507462
C -1.8068522388059702 -2.121249253731343 -1.5681597014925381
C 0.6114477611940299 -1.614449253731343 -0.2582597014925381
H -0.4544522388059702 -1.954049253731343 1.5506402985074619
C -0.6479522388059701 -1.8270492537313432 -2.2998597014925384
H -2.74345223880597 -2.290549253731343 -2.092259701492538
C 0.5698477611940298 -1.5506492537313434 -1.6506597014925382
H 1.5072477611940298 -1.351949253731343 0.2991402985074618
H -0.7173522388059701 -1.7640492537313435 -3.3840597014925375
C 1.7791477611940298 -1.082849253731343 -2.4255597014925376
H 1.4739477611940297 -0.9102492537313429 -3.464259701492538
H 2.1252477611940295 -0.1337492537313434 -2.0010597014925384
C 1.3965477611940298 2.0964507462686566 1.997440298507462
H 1.51704776119403 1.8448507462686567 3.057640298507462
H 2.1256477611940294 1.5207507462686571 1.4165402985074618
C 3.94864776119403 -1.4275492537313434 -3.522959701492538
H 4.81734776119403 -2.087049253731343 -3.615159701492538
H 3.4305477611940303 -1.3641492537313429 -4.484459701492538
H 4.26984776119403 -0.441449253731343 -3.176459701492538
C 2.60904776119403 -3.4296492537313434 -2.8992597014925376
H 1.9825477611940296 -3.869549253731343 -2.119359701492538
H 2.06294776119403 -3.373349253731343 -3.845759701492538
H 3.5215477611940305 -4.019849253731343 -3.0234597014925377
C 3.7281477611940304 -2.060049253731343 -1.156659701492538
H 3.9048477611940298 -1.032549253731343 -0.8295597014925382
H 3.12924776119403 -2.623249253731343 -0.4404597014925382
H 4.68244776119403 -2.5769492537313434 -1.3005597014925383
C 3.1110477611940297 3.755250746268656 2.588740298507462
H 3.40124776119403 4.809350746268656 2.534540298507462
H 2.9823477611940303 3.461750746268656 3.634840298507462
H 3.86514776119403 3.1392507462686563 2.091540298507462
C 1.99744776119403 3.9574507462686572 0.40494029850746194
H 2.67914776119403 3.230350746268657 -0.04295970149253803
H 1.03214776119403 3.981150746268657 -0.10175970149253821
H 2.4399477611940297 4.958250746268657 0.368240298507462
C 0.7418477611940297 4.4992507462686575 2.475440298507462
H -0.18475223880597014 4.424250746268656 1.901240298507462
H 0.57844776119403 4.189650746268656 3.511940298507462
H 1.1210477611940297 5.524350746268658 2.4432402985074617
N 3.00114776119403 -2.025349253731343 -2.490159701492538
N 1.7831477611940298 3.586450746268657 1.862540298507462
C -3.55075223880597 -3.8435492537313434 0.6444402985074619
H -2.62515223880597 -2.2736492537313433 1.7424402985074618
H -4.67195223880597 -1.3478492537313436 1.5102402985074619
H -4.83415223880597 -1.6757492537313432 -0.1945597014925382
H -3.7169522388059697 0.17335074626865676 -0.900559701492538
H -3.9132522388059705 -4.043149253731343 -0.34225970149253815
H -4.35435223880597 -3.9354492537313432 1.3449402985074619
H -2.78115223880597 -4.545049253731343 0.8904402985074619
H -5.24235223880597 1.138950746268657 1.5249402985074618
H -5.92805223880597 0.6501507462686567 -0.006059701492538094
H -4.89895223880597 2.059650746268657 0.08004029850746197
C 2.4502406001400705 -1.5580077918342798 2.9440032098641034
O 2.2278139171903915 -0.8504505929866029 3.9143972945899073
O 1.5864801667081694 -2.0812090626971784 2.230694154892149
O 3.5735291590056564 -1.8603404857366939 2.5251164231073657
O -7.154766373534478 -3.6491915252387765 -4.589885710513594
H -7.322389731773798 -2.7226727259098342 -4.818867546392838
H -7.756530759274492 -3.8199527344097874 -3.8498301870578215
O 3.4213381671329866 -7.482448078146056 -1.6921920854162145
H 2.639859119392992 -7.250090554015136 -1.1684862177546598
H 4.06989408318655 -6.801023567309699 -1.4598178095521392
O -9.168279977485627 3.287901271698249 -4.320023028331251
H -9.142839638573847 3.366767751270737 -5.28547640600202
H -8.234455114647774 3.2719277796915938 -4.061802352553771
O 0.9159575013976635 -9.970564990183952 -3.636714696278665
H 0.33029520452759886 -10.522331619262163 -4.176641189387263
H 1.591898404647658 -10.587903395902407 -3.3189740277475828
O -4.193511729157466 -8.621333056606005 2.9300410442749314
H -3.646470595552132 -9.397698829632041 2.7377663930140854
H -4.975620756935967 -8.74178334206662 2.3707923145492176
O 9.284665767060158 1.9607244705618667 -4.135189551620606
H 9.315031115758082 1.65135093758358 -3.2174023651819486
H 9.295199334031022 1.1447461155631617 -4.657712577372083
O -2.243786405633533 0.27647824051513603 9.438130490995569
H -2.2976954249357036 -0.3782118587408245 10.15048015827569
H -1.4450400109769252 0.78393909095672 9.646576231158745
O 5.742094414421105 -5.025159122318716 -5.438468443832512
H 5.274148720029119 -5.461460342707172 -4.710707886308579
H 5.2006061861467305 -4.244849452475217 -5.630482146700315
O -4.309825054919122 -0.4436298054860863 7.556949918782503
H -4.6826970432971775 -0.7017542837113684 6.700617278435352
H -5.082211028073948 -0.37827334968036297 8.138422520422672
O -1.3339453912723105 8.43810646875658 5.382505030034141
H -1.8575158666991785 7.6822099177023295 5.688220123324564
H -1.958674400484723 8.957131094077837 4.8540269816171735
O -2.638216650656001 3.830133884908825 5.266446507008856
H -2.1581701030898777 3.702084836174596 6.0983876769169845
H -2.068233796836087 4.425160484342863 4.756520201924219
O -4.642044537626438 -6.210038247355791 -2.828312623051988
H -3.9111146970470108 -6.463654454191901 -2.244885039987391
H -4.72061499972041 -5.2524755011721815 -2.702367341649138
O -5.208394880717348 0.8114177138957563 -4.549000133004095
H -4.73433543357034 0.5759769860395259 -5.3606667278182485
H -6.131103535241353 0.5887342128673692 -4.743891747847421
O -5.633088373083432 4.30844400156003 2.6528482460237814
H -5.164875149271483 3.9411186026414433 3.4175807386360173
H -5.125069192519984 5.101904570941389 2.426355903290851
O -5.26616495488847 -2.716038099406491 5.005681624626293
H -5.238634222487526 -2.7507322650860733 5.973672187876403
H -5.465713907724912 -3.6275564597888246 4.744384019570713
O 10.913142717700577 0.33262342355581653 4.302009123403309
H 11.236411176845657 -0.04393574193322758 5.134275940660949
H 11.720659162968579 0.515513310320955 3.798590386921674
O 8.161362223609292 2.5682730270717875 -0.5221415485956284
H 8.130055493941963 3.007849357016907 -1.3851362737993909
H 7.254105234511563 2.256710493872181 -0.38511787202997194
O 2.418059456387969 -6.145277450186808 3.101635860140477
H 3.0108287597505994 -5.378958625352588 3.082998033129674
H 1.5785602168547839 -5.784033023787261 3.423669143386892
O 0.18595070583940299 9.047266633227641 2.5865550356142384
H 0.8263564303884987 9.666320027706497 2.9681579177429733
H -0.5206798486412181 9.004045245952568 3.248194752874643
O -7.635359422869279 -0.4158926406301626 4.292347214720106
H -8.444214172531035 -0.730454086598332 3.8613339346926407
H -7.031305451745217 -1.1715075296527533 4.236428668989487
C 4.786579989942512 10.03270303200507 17.27522856206187
O 5.32796176019062 9.159966036750147 16.66036746127859
O 4.245198219694404 10.905440027259996 17.890089662845153
O 0.10878174247532257 -14.158643758400498 -3.713454582800467
H 0.12781822169448276 -14.286611128669609 -2.753126867119332
H 0.6233589416402303 -13.349334244076772 -3.8519838592177553
O 3.7412428973849217 14.841621683688423 21.267874651635527
H 3.26379182691489 15.103892774275838 20.4664872875917
H 3.0957493682225445 14.315398444706977 21.763242344228992
O 8.864615249256563 4.129476726864784 1.267426498161236
H 8.84713345396706 4.396275089124342 2.198812764770893
H 9.80871385989757 4.047689738267458 1.065063838112746
O -4.431835556636596 5.5084290994126945 -5.8476730932613545
H -3.5776599882666558 5.404616508829198 -6.293289970563184
H -4.989077716009676 5.945914401169361 -6.508770461932644
O 13.633053706554147 -9.627377598853872 2.9236481810587236
H 13.256078504609446 -9.63911579464119 2.0310568586841367
H 13.384754179381435 -8.75758618874473 3.27117111844007
O -16.012706473433116 2.695885500052773 3.6423542180284243
H -15.562183442261087 2.9169091215622363 4.471296263058357
H -15.677411048127173 1.8139329386389629 3.4216766217833032
O 9.54440263549867 -10.16365567364689 4.439238654207412
H 9.135260121438796 -9.610874569515971 5.121882639755201
H 10.417398130281997 -10.376027337181398 4.802197449273184
O -11.708639002205295 -0.4886621231548336 -3.384498022170379
H -12.442226877734047 -1.0892250559953103 -3.18414745572431
H -10.95207006973437 -1.0794044483746903 -3.517121172161775
O 9.903452939128503 4.5855203615875055 -1.1007426489623082
H 10.738001598255455 5.00264390505223 -1.3624750350684989
H 10.127637312403634 3.6466590600117197 -1.0156381985342875
O 2.724095088131312 10.072895441581217 12.179718450102571
H 3.0821370786795064 10.084290561676102 13.080075846441554
H 3.366391773136853 9.547786705063505 11.679041181232027
O 9.803554483495198 13.47894848345069 0.4497244559372162
H 10.079968915783455 13.188985779590933 -0.43259297497588856
H 9.699504149633382 14.438063125145199 0.35897988910011014
O 11.82321454195249 9.404254453711687 11.960167817166482
H 11.76941240107394 8.450304381164162 11.798761666033817
H 12.718760983794187 9.63979445482805 11.674721810575425
O -0.8179520207942197 -11.09855115754371 11.5986971184285
H -0.9170788295397843 -11.62228933977525 12.407918688309536
H -1.722049286723314 -11.018848256601471 11.259260046762886
O -13.344839922892168 -9.122505325571028 7.22494074951179
H -13.808916043232493 -8.899987834048321 8.045968567186879
H -13.463682913664792 -8.337886001374674 6.668873483848834
O -2.619520128125191 3.427293565951981 18.3633159113791
H -3.290637434681347 3.544104525971635 19.05246329573175
H -1.8117684401566678 3.2185830874217665 18.85620442923653
O 6.9938420333977085 7.379062148100276 8.473780752591937
H 7.676636619854651 7.749792615007022 9.052847096383562
H 6.393201901642951 6.92307352478459 9.082277056469197
O -5.4029197033364715 -14.766386448578878 8.450964131220122
H -4.54993416643653 -15.22101782585209 8.382456164251472
H -5.2680051788666304 -14.121451191713396 9.16146995796536
O 10.710241143949096 12.667682935125125 11.614639118094779
H 10.883215340173523 11.801777514606218 11.215571345584285
H 10.401641387385197 12.456025895783888 12.508467643174399
O -1.0754823852212834 14.242216944254398 11.951940385080414
H -0.4931028699352744 14.183400361329678 12.724172258709245
H -1.9582716757203453 14.066093773368944 12.31058455631064
O 2.5709395986721777 -12.581308237640442 -5.951411941108694
H 2.3344472052099947 -13.042948890833198 -5.132921493971835
H 1.8256091739851694 -11.981586107966304 -6.105612685318958