194

C -5.0710522388059704 1.0783507462686561 0.47044029850746183
C -3.8153522388059704 0.1782507462686569 0.19534029850746193
C -4.11845223880597 -1.3219492537313435 0.5608402985074619
C -2.96945223880597 -2.3874492537313436 0.7034402985074619
C -2.52015223880597 0.7359507462686565 0.7384402985074618
C -2.20305223880597 0.7852507462686571 2.097440298507462
C -1.5755522388059702 1.205650746268656 -0.18965970149253808
C -0.9533522388059701 1.2695507462686564 2.508640298507462
H -2.91125223880597 0.4298507462686567 2.840840298507462
C -0.32655223880597006 1.6562507462686575 0.21554029850746192
H -1.7850522388059702 1.178550746268657 -1.2573597014925382
C 0.004447761194029898 1.6956507462686563 1.569740298507462
H -0.7158522388059702 1.2676507462686573 3.5705402985074617
H 0.3943477611940298 1.9193507462686572 -0.5551597014925382
C -1.76045223880597 -2.1592492537313435 -0.1734597014925381
C -0.5287522388059701 -1.936549253731343 0.464840298507462
C -1.8068522388059702 -2.121249253731343 -1.5681597014925381
C 0.6114477611940299 -1.614449253731343 -0.2582597014925381
H -0.4544522388059702 -1.954049253731343 1.5506402985074619
C -0.6479522388059701 -1.8270492537313432 -2.2998597014925384
H -2.74345223880597 -2.290549253731343 -2.092259701492538
C 0.5698477611940298 -1.5506492537313434 -1.6506597014925382
H 1.5072477611940298 -1.351949253731343 0.2991402985074618
H -0.7173522388059701 -1.7640492537313435 -3.3840597014925375
C 1.7791477611940298 -1.082849253731343 -2.4255597014925376
H 1.4739477611940297 -0.9102492537313429 -3.464259701492538
H 2.1252477611940295 -0.1337492537313434 -2.0010597014925384
C 1.3965477611940298 2.0964507462686566 1.997440298507462
H 1.51704776119403 1.8448507462686567 3.057640298507462
H 2.1256477611940294 1.5207507462686571 1.4165402985074618
C 3.94864776119403 -1.4275492537313434 -3.522959701492538
H 4.81734776119403 -2.087049253731343 -3.615159701492538
H 3.4305477611940303 -1.3641492537313429 -4.484459701492538
H 4.26984776119403 -0.441449253731343 -3.176459701492538
C 2.60904776119403 -3.4296492537313434 -2.8992597014925376
H 1.9825477611940296 -3.869549253731343 -2.119359701492538
H 2.06294776119403 -3.373349253731343 -3.845759701492538
H 3.5215477611940305 -4.019849253731343 -3.0234597014925377
C 3.7281477611940304 -2.060049253731343 -1.156659701492538
H 3.9048477611940298 -1.032549253731343 -0.8295597014925382
H 3.12924776119403 -2.623249253731343 -0.4404597014925382
H 4.68244776119403 -2.5769492537313434 -1.3005597014925383
C 3.1110477611940297 3.755250746268656 2.588740298507462
H 3.40124776119403 4.809350746268656 2.534540298507462
H 2.9823477611940303 3.461750746268656 3.634840298507462
H 3.86514776119403 3.1392507462686563 2.091540298507462
C 1.99744776119403 3.9574507462686572 0.40494029850746194
H 2.67914776119403 3.230350746268657 -0.04295970149253803
H 1.03214776119403 3.981150746268657 -0.10175970149253821
H 2.4399477611940297 4.958250746268657 0.368240298507462
C 0.7418477611940297 4.4992507462686575 2.475440298507462
H -0.18475223880597014 4.424250746268656 1.901240298507462
H 0.57844776119403 4.189650746268656 3.511940298507462
H 1.1210477611940297 5.524350746268658 2.4432402985074617
N 3.00114776119403 -2.025349253731343 -2.490159701492538
N 1.7831477611940298 3.586450746268657 1.862540298507462
C -3.55075223880597 -3.8435492537313434 0.6444402985074619
H -2.62515223880597 -2.2736492537313433 1.7424402985074618
H -4.67195223880597 -1.3478492537313436 1.5102402985074619
H -4.83415223880597 -1.6757492537313432 -0.1945597014925382
H -3.7169522388059697 0.17335074626865676 -0.900559701492538
H -3.9132522388059705 -4.043149253731343 -0.34225970149253815
H -4.35435223880597 -3.9354492537313432 1.3449402985074619
H -2.78115223880597 -4.545049253731343 0.8904402985074619
H -5.24235223880597 1.138950746268657 1.5249402985074618
H -5.92805223880597 0.6501507462686567 -0.006059701492538094
H -4.89895223880597 2.059650746268657 0.08004029850746197
C -4.291235528067926 0.19247233229977873 -2.993050153543693
O -5.441816701927626 -0.21619606009732323 -3.023523191055624
O -3.959035968978955 1.3800392840550801 -2.903833270950118
O -3.2810008779287907 -0.5182980501174428 -3.0467139172649955
O 0.9042548667913373 10.530275237507489 4.771992390486935
H 0.2964564064062053 10.081683372210717 4.165103828357917
H 1.7588462296774332 10.493967945717957 4.3166712649684795
O 6.935302678314635 -3.359953857271946 0.9145845981334886
H 6.849159841178611 -3.5955985444933507 1.8505431174571196
H 7.8819017317622935 -3.1851748316143476 0.803388966464891
O -3.25886471080295 7.085244676915352 -2.78310979809223
H -3.3473625649739778 7.136118346203887 -3.746721419275913
H -3.202860337463279 6.134766030811559 -2.603065920752487
O 4.674769818098311 -0.26407806930520494 9.562021826184054
H 5.588752918546737 -0.3312372145155549 9.876810482601815
H 4.6076445286686765 -0.9574836281744021 8.88849018568876
O -0.0158655529334375 5.783557771673608 -4.921116330256957
H -0.7137304356154712 5.156173067689018 -4.679578764596127
H -0.43596370654929206 6.359762074882022 -5.577216998289428
O -2.396722626114496 -0.17116493323237547 -7.2051806386617985
H -1.646244316256517 -0.6071766223271715 -7.636044271735439
H -2.0550930251485084 0.07446310356221142 -6.332301478878351
O -1.5949516798284185 4.820001518621567 -6.842398652237588
H -1.7407862412583752 4.7476145616834025 -7.7976262513247185
H -0.7550499429734701 4.3587582895261425 -6.698240057829671
O -8.802032180777854 -2.820179298590596 2.372091137020229
H -8.452886740442882 -2.9206460927721114 3.270406917611993
H -8.013643250554207 -2.6646974219558546 1.8305837732300843
O 0.8477346693881946 -8.488017539304742 -1.9440290634187531
H 1.192086119606297 -7.886332271106257 -2.621055114369237
H 0.38376579490101204 -7.903715689184233 -1.3257361103998413
O -5.648329319658082 -7.7285785192081935 5.136353581978397
H -5.405037178920502 -7.800343110555737 4.201139096106816
H -5.98925785188497 -8.608206892845914 5.357675981443705
O 5.105869050661769 0.5216955751091513 1.6551494739298485
H 5.785080110481479 0.381387918218538 2.3318720570733795
H 4.278307320566379 0.5572643341693946 2.1579798534421024
O -0.14824224075440595 2.7273891242145094 -2.6459234594277863
H -0.12230711907715403 3.550573644856767 -2.1353728044105154
H -0.7088783581217549 2.9414045055666533 -3.406743086374909
O -1.465917543067805 -10.52519157142138 2.703770137872449
H -2.374413837159678 -10.202553497304677 2.606268785822337
H -1.125131236342728 -10.542631561669305 1.7968398846617442
O -2.5296374312374117 -1.2561922479011767 6.15610214768837
H -3.0945768846006914 -2.038490485797811 6.067670038602243
H -3.133338533081064 -0.5656291532427855 6.468559402730696
O 2.97008769799539 -4.7516111667351275 2.6714606247679566
H 2.728576622569345 -4.72376588737764 1.733449751822414
H 2.364185039206367 -4.120464043264463 3.0879906007686015
O 10.098242911350855 1.8562824741548802 -0.6079284191487986
H 9.707037582024121 2.674764467509711 -0.9485351920706924
H 10.067102424828207 1.9647946810683647 0.35447342797635084
O 3.747065569269171 -7.883868103024152 4.146517595568637
H 2.95554959772171 -8.336310039573974 3.8182400944566535
H 4.346583995176005 -8.60607429672978 4.38726188952266
O -0.1714812028700261 -8.275379888905745 1.135916681804186
H 0.6149173871836718 -7.857971263846754 0.7534056960953839
H 0.0866630827398121 -8.467488184972389 2.049928648186113
O -7.382782698253848 2.369628466441577 4.973088783111004
H -7.757076414263537 3.2565975883706373 4.862828419425538
H -6.430585772105845 2.5004290734064702 4.849905345296064
O -3.8996406474098464 8.402532482884167 1.1357297999332583
H -3.7818550423145805 9.123024333440052 0.4985599627509726
H -4.855616242556708 8.382986301789783 1.292862077292899
C -7.840124500499335 5.65655545516228 2.556526588820055
O -6.714775762693262 5.5717783122017135 2.157501136436722
O -8.965473238305407 5.741332598122847 2.955552041203388
O 5.873107715290158 2.2825044463834856 12.293667639621761
H 6.263390877943924 2.4169268484621362 13.170352889679261
H 6.6341457039447675 2.29653172608548 11.694012439070054
O 19.85312240722532 -2.792033451968843 4.200056908756425
H 19.748263814478825 -2.392574427093063 3.3234700506114287
H 18.991360267696113 -3.1983890748842505 4.376700807318105
O -4.417373579390286 -1.4635390665308299 -17.863288486282524
H -4.844182761067131 -1.0082399476771011 -18.604573850840172
H -3.470814923803845 -1.389936298525499 -18.057121631993834
O -11.157760087213886 -13.139657202689477 -7.075621757035331
H -10.247276548489758 -12.90337710150436 -6.842901331639668
H -11.582639193753021 -13.304561546234408 -6.2204923828430285
O -6.821274805436955 7.982200090281934 -18.6294051586211
H -7.041173754427102 7.607314094923607 -19.49547230360308
H -6.889145967675888 7.228581165146114 -18.02408378504053
O -13.11170358123618 -12.358047879607545 -3.8784567317130434
H -13.395896137367366 -12.888958115286442 -3.1192885885517256
H -13.564688118274486 -12.765679039989628 -4.63185157546348
O 1.4201319534786907 -7.30679214478921 8.073899838628169
H 1.6690058407384467 -6.499647482559276 8.548817346595548
H 1.8966841174784839 -8.009493454782692 8.540880403770398
O 8.83236226278484 -5.706363100768478 19.657498361637135
H 8.774574047864593 -6.6463325984124495 19.885720233102752
H 9.60088488437992 -5.655080011526135 19.06953155206844
O -3.2965895407762584 -10.662741316373388 -9.58607826501847
H -2.453111083776296 -10.96806320463947 -9.952534256950106
H -3.03895543143145 -10.124550299652846 -8.822575128467339
O 13.796375418669077 10.803338729052392 14.002001372273345
H 13.043820345898784 11.236131500150936 13.57151486071632
H 13.927416171686083 9.993771352046245 13.485870645193351
O -15.132231963848579 -1.2890413468362167 -8.77642598186019
H -15.58494472548048 -0.44959516784361053 -8.947740385604678
H -15.819012852444473 -1.9581579306289703 -8.91634364569483
O 2.4475303069775816 -5.683058089627022 -8.987289782223684
H 3.00295894270812 -6.083284328393313 -8.301516244302087
H 2.5121040768729825 -4.731672651363713 -8.81507503139778
O -6.440929250431368 -6.228884904792617 -16.413585269031323
H -7.022644207271178 -5.650966391205089 -15.897266319600218
H -5.679884468643363 -5.667224754930308 -16.624086244016944
O 0.5544348233915191 -3.0342784838834436 14.225006886659044
H 1.2476194960144253 -3.617374691537163 14.569188785021703
H 0.984364636477534 -2.5658257560901294 13.493792593894721
O 9.983588966592537 -2.2073386534411226 -3.0625238336706793
H 10.03672365519561 -2.219240031840684 -4.029996013611397
H 9.893416939981671 -1.2674746729992616 -2.844609519811149
O 2.6927007118613844 -4.987867970209043 12.33054259977023
H 2.828662724115392 -5.8972489318087575 12.02475189552332
H 2.8265125110555576 -4.450966840574191 11.535059398380511
O 2.570584181983965 -2.421062602024037 -24.93581261941131
H 2.747129798349273 -1.6654871738674837 -24.355377632002522
H 3.3733493090682902 -2.9597086806293795 -24.869551793576015
O -8.493658805753045 -8.168583165667865 2.941665170216653
H -8.480711399326301 -7.493973442582838 3.6371516496581764
H -9.051549385128261 -8.871311747104297 3.3075785296020777
O 13.018830817194388 11.119555696987621 -2.8305965339784738
H 12.837469677794639 11.088245247193901 -3.7819614217840622
H 12.587542360520018 10.324139605685223 -2.4838034355225584
O 8.51276377533933 -5.622449535041943 -12.255481723749375
H 8.607075206139804 -4.818054728290256 -11.723483879964942
H 7.603772205638511 -5.577781889550125 -12.588199429859312