194

C -5.0710522388059704 1.0783507462686561 0.47044029850746183
C -3.8153522388059704 0.1782507462686569 0.19534029850746193
C -4.11845223880597 -1.3219492537313435 0.5608402985074619
C -2.96945223880597 -2.3874492537313436 0.7034402985074619
C -2.52015223880597 0.7359507462686565 0.7384402985074618
C -2.20305223880597 0.7852507462686571 2.097440298507462
C -1.5755522388059702 1.205650746268656 -0.18965970149253808
C -0.9533522388059701 1.2695507462686564 2.508640298507462
H -2.91125223880597 0.4298507462686567 2.840840298507462
C -0.32655223880597006 1.6562507462686575 0.21554029850746192
H -1.7850522388059702 1.178550746268657 -1.2573597014925382
C 0.004447761194029898 1.6956507462686563 1.569740298507462
H -0.7158522388059702 1.2676507462686573 3.5705402985074617
H 0.3943477611940298 1.9193507462686572 -0.5551597014925382
C -1.76045223880597 -2.1592492537313435 -0.1734597014925381
C -0.5287522388059701 -1.936549253731343 0.464840298507462
C -1.8068522388059702 -2.121249253731343 -1.5681597014925381
C 0.6114477611940299 -1.614449253731343 -0.2582597014925381
H -0.4544522388059702 -1.954049253731343 1.5506402985074619
C -0.6479522388059701 -1.8270492537313432 -2.2998597014925384
H -2.74345223880597 -2.290549253731343 -2.092259701492538
C 0.5698477611940298 -1.5506492537313434 -1.6506597014925382
H 1.5072477611940298 -1.351949253731343 0.2991402985074618
H -0.7173522388059701 -1.7640492537313435 -3.3840597014925375
C 1.7791477611940298 -1.082849253731343 -2.4255597014925376
H 1.4739477611940297 -0.9102492537313429 -3.464259701492538
H 2.1252477611940295 -0.1337492537313434 -2.0010597014925384
C 1.3965477611940298 2.0964507462686566 1.997440298507462
H 1.51704776119403 1.8448507462686567 3.057640298507462
H 2.1256477611940294 1.5207507462686571 1.4165402985074618
C 3.94864776119403 -1.4275492537313434 -3.522959701492538
H 4.81734776119403 -2.087049253731343 -3.615159701492538
H 3.4305477611940303 -1.3641492537313429 -4.484459701492538
H 4.26984776119403 -0.441449253731343 -3.176459701492538
C 2.60904776119403 -3.4296492537313434 -2.8992597014925376
H 1.9825477611940296 -3.869549253731343 -2.119359701492538
H 2.06294776119403 -3.373349253731343 -3.845759701492538
H 3.5215477611940305 -4.019849253731343 -3.0234597014925377
C 3.7281477611940304 -2.060049253731343 -1.156659701492538
H 3.9048477611940298 -1.032549253731343 -0.8295597014925382
H 3.12924776119403 -2.623249253731343 -0.4404597014925382
H 4.68244776119403 -2.5769492537313434 -1.3005597014925383
C 3.1110477611940297 3.755250746268656 2.588740298507462
H 3.40124776119403 4.809350746268656 2.534540298507462
H 2.9823477611940303 3.461750746268656 3.634840298507462
H 3.86514776119403 3.1392507462686563 2.091540298507462
C 1.99744776119403 3.9574507462686572 0.40494029850746194
H 2.67914776119403 3.230350746268657 -0.04295970149253803
H 1.03214776119403 3.981150746268657 -0.10175970149253821
H 2.4399477611940297 4.958250746268657 0.368240298507462
C 0.7418477611940297 4.4992507462686575 2.475440298507462
H -0.18475223880597014 4.424250746268656 1.901240298507462
H 0.57844776119403 4.189650746268656 3.511940298507462
H 1.1210477611940297 5.524350746268658 2.4432402985074617
N 3.00114776119403 -2.025349253731343 -2.490159701492538
N 1.7831477611940298 3.586450746268657 1.862540298507462
C -3.55075223880597 -3.8435492537313434 0.6444402985074619
H -2.62515223880597 -2.2736492537313433 1.7424402985074618
H -4.67195223880597 -1.3478492537313436 1.5102402985074619
H -4.83415223880597 -1.6757492537313432 -0.1945597014925382
H -3.7169522388059697 0.17335074626865676 -0.900559701492538
H -3.9132522388059705 -4.043149253731343 -0.34225970149253815
H -4.35435223880597 -3.9354492537313432 1.3449402985074619
H -2.78115223880597 -4.545049253731343 0.8904402985074619
H -5.24235223880597 1.138950746268657 1.5249402985074618
H -5.92805223880597 0.6501507462686567 -0.006059701492538094
H -4.89895223880597 2.059650746268657 0.08004029850746197
C 2.3027723446105144 -1.2915491365481067 2.69361978283129
O 2.1015421846979057 -2.2470068442503806 3.427365304203559
O 3.383404169038905 -1.0196901703602725 2.157934215883803
O 1.45691034150075 -0.4486330602667341 2.3732163739206595
O -6.571911166971167 1.1978143650350912 6.823224739349156
H -6.364062537951433 0.9096957148841424 5.921696066621653
H -6.943894128599478 0.40698982464767103 7.24177840004185
O -7.534051218429816 -10.508266557487635 -1.2491587882147939
H -6.944777757241532 -10.256652118203913 -1.9760799110218832
H -6.940131634464879 -10.89992656333805 -0.5912652467506998
O -7.010694993726272 6.300322078058216 -4.016501242912547
H -6.966212529635131 6.403148026041185 -3.05399644203632
H -6.7204343474316905 5.388334708866397 -4.168124921628092
O 10.672397747865382 6.684725692415821 0.025952748567920736
H 10.64549301179563 5.752226964677 -0.23613428820135596
H 11.560702255674743 6.974478495387379 -0.2307968548897925
O 2.7190751351866984 -6.403878208211171 0.17300998117248523
H 3.129243209612926 -6.67201483674636 1.008971855936678
H 2.894886950599039 -7.1473699017619285 -0.42303720780037035
O 9.198747714939675 -4.287478503210117 -1.7587647307265524
H 9.450618033780838 -4.31488758093113 -2.6940601075168664
H 10.027492457898095 -4.46212796117199 -1.2879763895875578
O -5.404659913922891 -2.7458493930688803 -6.9355745117999685
H -5.002486336049102 -3.198113097957954 -7.692331613781974
H -4.728823515981777 -2.1098555171214346 -6.656793419766591
O 2.0530118704916545 8.672402908569689 -2.322691298407256
H 2.6994547539956697 7.952170075473095 -2.2742803348073624
H 1.8190223708732371 8.71414631666215 -3.2620891620673493
O 3.031593650277951 1.5824983428133015 -9.79369305988461
H 3.6041080289818352 2.170600989404981 -10.308794914035001
H 3.3593174428304833 0.6948477207498761 -10.002584020065749
O 5.521095861802726 1.8793105996002322 -4.36569241987944
H 5.573964541083228 2.1820746363237733 -5.284662603137853
H 6.443669630071078 1.8679207686685377 -4.069567685764773
O -3.7449015103912653 -5.313137503315549 5.23767321415806
H -3.2628088346781974 -4.485153824501333 5.092769671961555
H -3.0827460377014924 -5.904687688356518 5.625720186656205
O 0.24342101930768667 6.755788503098617 7.699979181275158
H -0.20326252162299063 6.372496311388133 8.469737758320848
H -0.06373681621853233 6.214253511448569 6.95744577381565
O -1.6996101126577965 5.22340208236644 -1.9741903743541056
H -1.6552725243611335 4.450149735956188 -2.5564981485895832
H -1.314637390997674 5.937675956651529 -2.5038796987616925
O 4.969368966506198 8.567771867670004 -7.0232477374501565
H 4.940786555065478 8.443717630396065 -6.062643266884557
H 5.8103152857659826 8.164626988078485 -7.2863930176331015
O 5.2237429769140515 -7.8848299682517125 -6.873625717155776
H 5.925477469872409 -7.273613415150971 -6.60353243047851
H 5.027259479353608 -7.626814577986007 -7.786743583519398
O -0.1030281084205274 7.170002692907135 1.2861122589251264
H 0.8640779600475534 7.117045847210731 1.2566371554291256
H -0.3944815415783545 6.458377217507471 0.6965310318132748
O 1.1618149675109888 0.6674543504790331 8.67306302032939
H 0.5530890645806695 0.8287324376620147 7.936578457968259
H 1.6010125433512776 1.5210799653793727 8.804936987669537
O -5.13470832103996 6.675335789102666 -0.7956385552157806
H -4.174480558675474 6.546624377756039 -0.7765761872187957
H -5.260224993864752 7.557455803114019 -0.4147556466682795
O -1.27624079428031 -4.663736678904154 2.816328776055202
H -1.4313678932543064 -5.620043169764979 2.8358437856982155
H -0.666441082483068 -4.51044389636267 3.5536262591735763
O -3.442165009738776 5.725377168185488 7.143465625618621
H -3.144986068348468 6.053022276251994 6.281316730789992
H -2.701913225175311 5.183702397271838 7.455839892014317
C -0.5276178690124059 -11.65717094393188 -5.816526881932992
O 0.24936049083937428 -11.288455101328594 -6.649096106103203
O -1.304596228864186 -12.025886786535166 -4.983957657762781
O -12.841692127196183 10.599479961527683 -0.998024384534324
H -12.825270622718966 10.709655565138936 -1.9606037461765742
H -12.123074115581371 9.973795609994895 -0.821759839234464
O -4.807653813334486 3.577931937501446 10.820544010278871
H -5.632113297357085 3.541634554293779 10.312689290819193
H -4.276926386707359 2.853101645181459 10.457347933398806
O -13.438424117521592 1.9700735487724197 4.084184814625689
H -13.325715438906151 1.9068674619452093 3.123836387619766
H -14.27937746124249 1.5186214740501045 4.2513686721405755
O 3.3247563614543525 -14.385767696256371 11.750852213476259
H 3.753953180593382 -15.205512982815078 11.463145570338277
H 2.802680909660153 -14.11246286511352 10.981629465367586
O 1.079748584685532 -1.5738847235891507 14.073628341240461
H 1.1590202047520042 -1.9018371945844688 14.981995306690056
H 0.13561435527881294 -1.3783845507010273 13.976921652933532
O -8.44587054922763 11.759563920780415 -16.474263520475812
H -9.193559459175223 11.71730058669281 -17.089196412288555
H -8.141317587676623 12.6771932381726 -16.538807100891407
O 4.423999613709473 -19.524469796329846 -0.6839576546929873
H 4.4192400981443445 -20.264061960185302 -0.057900041469412855
H 4.903625148791976 -19.870607703690798 -1.4514925656153537
O 6.864567679471601 3.316429220576186 -10.197849411297794
H 6.884153599519844 3.275954330292322 -9.229889943193692
H 7.3413033478375045 2.519682695426841 -10.475121879224481
O -3.493424805292034 -17.55287405259515 -7.6319687569337855
H -3.4594990817705895 -17.40680926570267 -8.589299149334238
H -4.422673099503892 -17.398881086942904 -7.4044919041905235
O -5.0336386579221735 11.884309090463555 0.8609514816611576
H -4.766253265138101 11.788257577923225 1.787367433361269
H -4.853070131887583 12.814997527766492 0.6605120035728457
O 0.65179176215646 12.884557210565283 -10.237002709278055
H -0.12804559322362774 12.738958974831332 -9.680565642032391
H 1.282817295696585 13.321876208539122 -9.645799855486263
O 20.826358372351464 -8.446236628603003 -10.406650529509589
H 19.978890137957787 -8.341593224557565 -10.86470588269679
H 20.610369609253567 -8.28706844627381 -9.475534914642422
O 5.702154739613993 5.377317549646924 13.797547805524523
H 5.086387464937696 6.0723738898835355 13.520609718157306
H 5.503975011162955 5.249940661739998 14.737474328162447
O -6.660939891030937 -4.08335284818937 -3.6210708501631075
H -7.366897726830331 -3.9229654998409633 -4.265172386772984
H -6.643991670747748 -3.275429044481397 -3.086343041337653
O -13.949082763969255 -6.748574366893003 -9.996629042253609
H -13.750891932773184 -7.485243652602669 -10.594128929133783
H -14.860308100723387 -6.916079138183841 -9.71277611985871
O -9.526951488951854 -1.6236793485052723 -12.399296439060832
H -9.168575905094443 -1.593965121433725 -11.499490147404456
H -10.090815181821135 -2.4117260189428835 -12.400754305999282
O 15.694991609503301 6.6519945554836015 6.1375601798609924
H 16.269273467847704 7.425897038148202 6.238766164872106
H 16.170886838475766 5.9454030163135165 6.599311273107665
O 3.1266780845509903 -16.17794959063418 -2.727388741720864
H 3.22729778652747 -16.292503312303964 -1.770455892809423
H 3.042773734531915 -17.0827634080884 -3.063891282709482
O 16.87524174187273 -1.007308443457028 -3.107635328735906
H 16.80599594482025 -1.958669157682173 -3.2781790706896636
H 16.264276204887093 -0.609964149864471 -3.746227976098279
O 15.807037183623084 0.19532992900950386 -6.975893718922433
H 15.489659296704916 -0.6336527828399515 -6.5872726988397785
H 15.631085829294005 0.09220038252557539 -7.923188478673474