194

C -5.0710522388059704 1.0783507462686561 0.47044029850746183
C -3.8153522388059704 0.1782507462686569 0.19534029850746193
C -4.11845223880597 -1.3219492537313435 0.5608402985074619
C -2.96945223880597 -2.3874492537313436 0.7034402985074619
C -2.52015223880597 0.7359507462686565 0.7384402985074618
C -2.20305223880597 0.7852507462686571 2.097440298507462
C -1.5755522388059702 1.205650746268656 -0.18965970149253808
C -0.9533522388059701 1.2695507462686564 2.508640298507462
H -2.91125223880597 0.4298507462686567 2.840840298507462
C -0.32655223880597006 1.6562507462686575 0.21554029850746192
H -1.7850522388059702 1.178550746268657 -1.2573597014925382
C 0.004447761194029898 1.6956507462686563 1.569740298507462
H -0.7158522388059702 1.2676507462686573 3.5705402985074617
H 0.3943477611940298 1.9193507462686572 -0.5551597014925382
C -1.76045223880597 -2.1592492537313435 -0.1734597014925381
C -0.5287522388059701 -1.936549253731343 0.464840298507462
C -1.8068522388059702 -2.121249253731343 -1.5681597014925381
C 0.6114477611940299 -1.614449253731343 -0.2582597014925381
H -0.4544522388059702 -1.954049253731343 1.5506402985074619
C -0.6479522388059701 -1.8270492537313432 -2.2998597014925384
H -2.74345223880597 -2.290549253731343 -2.092259701492538
C 0.5698477611940298 -1.5506492537313434 -1.6506597014925382
H 1.5072477611940298 -1.351949253731343 0.2991402985074618
H -0.7173522388059701 -1.7640492537313435 -3.3840597014925375
C 1.7791477611940298 -1.082849253731343 -2.4255597014925376
H 1.4739477611940297 -0.9102492537313429 -3.464259701492538
H 2.1252477611940295 -0.1337492537313434 -2.0010597014925384
C 1.3965477611940298 2.0964507462686566 1.997440298507462
H 1.51704776119403 1.8448507462686567 3.057640298507462
H 2.1256477611940294 1.5207507462686571 1.4165402985074618
C 3.94864776119403 -1.4275492537313434 -3.522959701492538
H 4.81734776119403 -2.087049253731343 -3.615159701492538
H 3.4305477611940303 -1.3641492537313429 -4.484459701492538
H 4.26984776119403 -0.441449253731343 -3.176459701492538
C 2.60904776119403 -3.4296492537313434 -2.8992597014925376
H 1.9825477611940296 -3.869549253731343 -2.119359701492538
H 2.06294776119403 -3.373349253731343 -3.845759701492538
H 3.5215477611940305 -4.019849253731343 -3.0234597014925377
C 3.7281477611940304 -2.060049253731343 -1.156659701492538
H 3.9048477611940298 -1.032549253731343 -0.8295597014925382
H 3.12924776119403 -2.623249253731343 -0.4404597014925382
H 4.68244776119403 -2.5769492537313434 -1.3005597014925383
C 3.1110477611940297 3.755250746268656 2.588740298507462
H 3.40124776119403 4.809350746268656 2.534540298507462
H 2.9823477611940303 3.461750746268656 3.634840298507462
H 3.86514776119403 3.1392507462686563 2.091540298507462
C 1.99744776119403 3.9574507462686572 0.40494029850746194
H 2.67914776119403 3.230350746268657 -0.04295970149253803
H 1.03214776119403 3.981150746268657 -0.10175970149253821
H 2.4399477611940297 4.958250746268657 0.368240298507462
C 0.7418477611940297 4.4992507462686575 2.475440298507462
H -0.18475223880597014 4.424250746268656 1.901240298507462
H 0.57844776119403 4.189650746268656 3.511940298507462
H 1.1210477611940297 5.524350746268658 2.4432402985074617
N 3.00114776119403 -2.025349253731343 -2.490159701492538
N 1.7831477611940298 3.586450746268657 1.862540298507462
C -3.55075223880597 -3.8435492537313434 0.6444402985074619
H -2.62515223880597 -2.2736492537313433 1.7424402985074618
H -4.67195223880597 -1.3478492537313436 1.5102402985074619
H -4.83415223880597 -1.6757492537313432 -0.1945597014925382
H -3.7169522388059697 0.17335074626865676 -0.900559701492538
H -3.9132522388059705 -4.043149253731343 -0.34225970149253815
H -4.35435223880597 -3.9354492537313432 1.3449402985074619
H -2.78115223880597 -4.545049253731343 0.8904402985074619
H -5.24235223880597 1.138950746268657 1.5249402985074618
H -5.92805223880597 0.6501507462686567 -0.006059701492538094
H -4.89895223880597 2.059650746268657 0.08004029850746197
C -2.0076607829081494 4.189900165107886 -0.23050371988929186
O -1.9354276500107876 3.240873331777266 0.5349412113306413
O -1.149007356616853 5.070480645747984 -0.3566931597559906
O -2.95060416196515 4.416582969532166 -0.9973942430220983
O 1.3463432540634752 6.587892052028354 5.582300866999544
H 2.0157546135233764 6.174105824968629 6.147665127473907
H 1.327480940255173 6.026584902107538 4.792655097767817
O 1.0695864587633612 4.930962176757009 -6.422234940833781
H 1.231513349789347 5.210426259069114 -7.3358250379561785
H 1.4875548009393091 4.058500521585637 -6.366781631696084
O -0.8309016076914753 7.075483728801562 5.351947683330917
H -1.2284545397293811 6.8883803194286415 6.215609270602861
H -1.5922478111807787 7.219749400316593 4.77013902169486
O 0.9898043181769292 -9.451718107913814 0.8441980633892561
H 1.4621451477656633 -10.072196235840781 1.4194096682510424
H 0.9876952550011207 -9.889292715146114 -0.020374639891398427
O -1.4427945129287518 -0.5738920378338894 -5.388862286143337
H -0.6207608393020673 -0.7273099327965014 -5.8784447059962766
H -1.2261682707643269 0.15726607890694533 -4.790997064015712
O -4.914593589124831 -3.4045400784671633 8.71651735831586
H -4.85827652848333 -3.0262922653933972 9.606868040623464
H -4.139594804036007 -3.0443872294691876 8.259758392591605
O -4.534231310303935 -6.466712574682834 -6.910222841395407
H -4.666666445048803 -6.403489922500057 -7.86804912430692
H -5.404333107321405 -6.724024522646751 -6.570112023334612
O 2.608664704857209 2.127648101734069 6.263383017943585
H 3.151704394498978 2.2279115337477924 5.467127721839
H 1.7137712290651228 2.3505291295250537 5.9659747821201785
O -8.260756877850671 -3.8173815263658257 -5.972374645302166
H -8.171867853287692 -3.831484574924133 -5.007560050556831
H -7.413935520947728 -3.460920741283936 -6.280256509808439
O -11.251783773701971 -1.6284285253432955 -0.6848702536610105
H -10.944631140648033 -1.6694249845144196 0.23324951371330305
H -11.34106632265112 -2.557988314589243 -0.9435383208246471
O -1.6931196292394457 7.332929705249606 2.0676152145881623
H -1.6320383502312001 7.469232821297741 1.1101926877953743
H -0.8943410120666146 7.756810530126345 2.4158101475628864
O -5.35248842004593 -2.907329633107988 5.429007300391498
H -5.498172246486317 -3.865272653893093 5.438427944891641
H -4.553984621382064 -2.786738856599035 5.964555143670081
O 7.525523494402631 9.852053105325593 3.468970629502282
H 7.695208199512316 10.56141895924092 2.8310250651703246
H 7.0866403787635965 9.165598219621845 2.9444487090829097
O -7.138645209657379 2.5965908802701714 8.620711408449884
H -6.179069418870858 2.4777545594312347 8.556996516266896
H -7.380703645330874 2.1178902013913463 9.427690539568063
O 3.5331793647726655 -5.478273714470099 -6.029810292952981
H 4.471870475250465 -5.51705691270524 -6.267133320796063
H 3.1491404642241707 -6.253389279846784 -6.466470260749761
O 3.937007548864522 -5.977254043225881 -1.2596998900140466
H 3.31158324693473 -5.2653351203621925 -1.0572566961935594
H 3.67129579912677 -6.697425129501445 -0.6683346755788595
O -6.491694812859316 2.8514485926782576 -1.318632194101049
H -6.539737811128513 2.519812799935361 -2.2278499503009033
H -5.676428363572482 3.374960574728062 -1.303212543731393
O 2.4093760805565734 -0.7361081217450481 3.0050584939710014
H 2.2646431074979727 -1.6809342567263754 3.1641914511667566
H 3.3371641007702153 -0.6844638491890798 2.7302782127275784
O -5.258032881809623 1.049734799730753 -9.626488034620284
H -5.442347519487753 0.9119727444610988 -8.685203227898397
H -4.527427217612745 1.6862526085821943 -9.63121949934068
O -0.4122068491621982 -6.074197415965853 2.1957950910824935
H -0.964922642697823 -5.352131174318308 1.8609922369290754
H -1.0418398410780134 -6.66852306466849 2.630882740970798
C -9.446125085240405 -1.0009729333849453 -18.296687516067568
O -8.272997734922976 -0.7996034183377736 -18.170035253368166
O -10.619252435557833 -1.202342448432117 -18.42333977876697
O -1.2999099608116018 -17.158138655026228 -1.592472963241553
H -1.984743853906874 -17.661611901214993 -1.1271939220844058
H -1.5297965375196183 -17.25980278502656 -2.5283033489529503
O -11.890578592211616 6.242318315723875 -11.159325589132235
H -11.015003783036438 5.827428351686756 -11.145097863413378
H -11.813581150007593 6.973130282667022 -10.527702911288316
O -15.199617266197947 0.7084545448676236 4.421974513977298
H -15.458158383720335 0.857059149851545 5.343950933864406
H -14.563157567602131 1.4162004494848137 4.240379550223016
O -10.160869707132374 -15.852307831377804 14.527535052348995
H -9.695772998059251 -16.49749316705635 15.081058575548068
H -9.563582655343698 -15.713985227504716 13.777150498054759
O 5.489884274433294 9.265587272517998 10.257830243217144
H 6.284466254598738 8.998657042204638 10.743993884228296
H 4.822433273849947 9.388213269168698 10.94951945888102
O 8.045648170308887 -8.36529667559587 10.149023690262744
H 8.940109996691653 -8.475125177214151 10.50517407742565
H 7.74868924805649 -9.271768136818318 9.978475067330951
O 6.551868914921568 16.32532344725808 -16.102779870177734
H 6.5768036454334915 16.315688157097075 -15.134145379103927
H 6.12618618924314 15.486188698880227 -16.33431612095464
O -2.9674651957171196 -6.81229752376699 -16.617401649371367
H -3.4295229893007426 -6.881562794257183 -15.768477462772495
H -3.6411685595567533 -7.053163564629921 -17.270907022119122
O -3.6644858901713735 -10.231733573709262 13.635958934156779
H -4.422270583967524 -10.054397640445146 14.213264469832318
H -3.883083899709555 -9.767977687891852 12.813701472715621
O -0.7576572760391085 18.905692556456437 10.57199331076171
H -1.0353012190222075 18.053489130946936 10.940273800843212
H -0.912499843665366 19.533977986349456 11.29327213488942
O 0.18984000047662253 1.46706214179558 -21.563856819447683
H 0.034804250188843255 2.159246660740748 -22.224017303546326
H -0.6984213510691752 1.1438334718426058 -21.350603583668097
O -0.8902691022772435 19.435757571904553 -5.629910006533233
H -1.4359566182239858 20.170840643250028 -5.312348406113442
H -0.763468335461658 19.62797133525288 -6.5711524721150045
O 2.583355344925349 19.309442770912824 0.04494280067564871
H 3.094725265674213 18.500929125170146 0.199130497010942
H 1.975021553149939 19.068874650931154 -0.6699130741219457
O 3.4480990307505435 -15.83388573905675 9.009745110708932
H 3.868304393381269 -15.06203407823065 8.601529697236625
H 3.9156464490799907 -16.588118370830923 8.620522175772571
O 5.394914506882224 -9.35421952096644 -0.7454838028510213
H 6.160776596301895 -9.217757936121199 -0.1677287918374759
H 4.633875246899242 -9.20819849553563 -0.16371146834491235
O -13.159785632533264 -12.439022859909947 2.796819124121766
H -12.280437355850907 -12.841488127022856 2.857939284163274
H -13.666347198927532 -12.87580073632205 3.4979485062112055
O -7.649414507081677 3.6339105276051393 -9.614040606990038
H -7.96396237082298 2.717586293352897 -9.633454417482195
H -6.733117956993683 3.5603918292136103 -9.3075156037951
O -5.239639406138447 -2.0589157534167755 13.285446785760895
H -6.028056185766615 -1.9116631148738592 13.829214198303148
H -5.280123774636661 -1.3562922695447543 12.619381323423411
O 9.006255697610749 1.4302864665029 -4.375907191616048
H 9.58188424000074 1.5800317392863503 -3.610926478548729
H 9.283484616724902 2.10555540643641 -5.013181017744087
O -6.005521858896935 0.8814735487021315 19.676604290423032
H -5.540013145867444 0.8399927150863833 20.525455476106465
H -5.649132582220464 0.13136614934262103 19.177317281583296