194

C -5.0710522388059704 1.0783507462686561 0.47044029850746183
C -3.8153522388059704 0.1782507462686569 0.19534029850746193
C -4.11845223880597 -1.3219492537313435 0.5608402985074619
C -2.96945223880597 -2.3874492537313436 0.7034402985074619
C -2.52015223880597 0.7359507462686565 0.7384402985074618
C -2.20305223880597 0.7852507462686571 2.097440298507462
C -1.5755522388059702 1.205650746268656 -0.18965970149253808
C -0.9533522388059701 1.2695507462686564 2.508640298507462
H -2.91125223880597 0.4298507462686567 2.840840298507462
C -0.32655223880597006 1.6562507462686575 0.21554029850746192
H -1.7850522388059702 1.178550746268657 -1.2573597014925382
C 0.004447761194029898 1.6956507462686563 1.569740298507462
H -0.7158522388059702 1.2676507462686573 3.5705402985074617
H 0.3943477611940298 1.9193507462686572 -0.5551597014925382
C -1.76045223880597 -2.1592492537313435 -0.1734597014925381
C -0.5287522388059701 -1.936549253731343 0.464840298507462
C -1.8068522388059702 -2.121249253731343 -1.5681597014925381
C 0.6114477611940299 -1.614449253731343 -0.2582597014925381
H -0.4544522388059702 -1.954049253731343 1.5506402985074619
C -0.6479522388059701 -1.8270492537313432 -2.2998597014925384
H -2.74345223880597 -2.290549253731343 -2.092259701492538
C 0.5698477611940298 -1.5506492537313434 -1.6506597014925382
H 1.5072477611940298 -1.351949253731343 0.2991402985074618
H -0.7173522388059701 -1.7640492537313435 -3.3840597014925375
C 1.7791477611940298 -1.082849253731343 -2.4255597014925376
H 1.4739477611940297 -0.9102492537313429 -3.464259701492538
H 2.1252477611940295 -0.1337492537313434 -2.0010597014925384
C 1.3965477611940298 2.0964507462686566 1.997440298507462
H 1.51704776119403 1.8448507462686567 3.057640298507462
H 2.1256477611940294 1.5207507462686571 1.4165402985074618
C 3.94864776119403 -1.4275492537313434 -3.522959701492538
H 4.81734776119403 -2.087049253731343 -3.615159701492538
H 3.4305477611940303 -1.3641492537313429 -4.484459701492538
H 4.26984776119403 -0.441449253731343 -3.176459701492538
C 2.60904776119403 -3.4296492537313434 -2.8992597014925376
H 1.9825477611940296 -3.869549253731343 -2.119359701492538
H 2.06294776119403 -3.373349253731343 -3.845759701492538
H 3.5215477611940305 -4.019849253731343 -3.0234597014925377
C 3.7281477611940304 -2.060049253731343 -1.156659701492538
H 3.9048477611940298 -1.032549253731343 -0.8295597014925382
H 3.12924776119403 -2.623249253731343 -0.4404597014925382
H 4.68244776119403 -2.5769492537313434 -1.3005597014925383
C 3.1110477611940297 3.755250746268656 2.588740298507462
H 3.40124776119403 4.809350746268656 2.534540298507462
H 2.9823477611940303 3.461750746268656 3.634840298507462
H 3.86514776119403 3.1392507462686563 2.091540298507462
C 1.99744776119403 3.9574507462686572 0.40494029850746194
H 2.67914776119403 3.230350746268657 -0.04295970149253803
H 1.03214776119403 3.981150746268657 -0.10175970149253821
H 2.4399477611940297 4.958250746268657 0.368240298507462
C 0.7418477611940297 4.4992507462686575 2.475440298507462
H -0.18475223880597014 4.424250746268656 1.901240298507462
H 0.57844776119403 4.189650746268656 3.511940298507462
H 1.1210477611940297 5.524350746268658 2.4432402985074617
N 3.00114776119403 -2.025349253731343 -2.490159701492538
N 1.7831477611940298 3.586450746268657 1.862540298507462
C -3.55075223880597 -3.8435492537313434 0.6444402985074619
H -2.62515223880597 -2.2736492537313433 1.7424402985074618
H -4.67195223880597 -1.3478492537313436 1.5102402985074619
H -4.83415223880597 -1.6757492537313432 -0.1945597014925382
H -3.7169522388059697 0.17335074626865676 -0.900559701492538
H -3.9132522388059705 -4.043149253731343 -0.34225970149253815
H -4.35435223880597 -3.9354492537313432 1.3449402985074619
H -2.78115223880597 -4.545049253731343 0.8904402985074619
H -5.24235223880597 1.138950746268657 1.5249402985074618
H -5.92805223880597 0.6501507462686567 -0.006059701492538094
H -4.89895223880597 2.059650746268657 0.08004029850746197
C 3.9501398746941137 -1.2574395985392934 2.151831267562158
O 4.1277930141621795 -0.3771840990500759 1.3239634542875218
O 4.668962778314107 -2.2525256619779266 2.299238267672483
O 3.024030345270811 -1.2893763615065894 2.9703357373621215
O -3.5390816151074436 5.780854607599737 7.317551011828513
H -3.8143883201420175 4.8558420446370185 7.230802332160472
H -2.8607293577499915 5.75928855154419 8.00916872737971
O -3.1197933337116126 10.297800652206647 7.135691704311878
H -2.8153441373924464 10.553730696699573 8.019308055499693
H -3.5832105265650736 11.084371326947302 6.8108640218310725
O 7.418648488038495 4.225656848253681 -1.8885153679655426
H 7.3536192734304615 4.657255312793318 -2.753651960391555
H 7.875570115720079 4.877215033439537 -1.3356532678229065
O 2.304277800258366 9.28282346049306 -0.7458712381284127
H 3.011537031258258 9.658566726313706 -1.2913698497269
H 2.7686063418951843 8.926116308356153 0.02621745971387668
O 8.215799483057872 0.7931494858456452 -4.796119010609854
H 8.234362760069063 0.8144992092246588 -3.8275288232972597
H 7.342672202960948 0.4287796038389924 -5.005511670789251
O -2.237260092397777 5.432724367952063 -1.8532848416083423
H -2.7353965031265135 6.204782694778662 -1.5454644180104173
H -2.693743754079705 5.168534019433842 -2.666173561340188
O 6.061879408234276 -3.0020840809247376 6.2760024984906835
H 6.7702048798914305 -2.509955861858423 6.717649641694724
H 6.478225452881679 -3.336609110975034 5.467478584387762
O -2.688119311637161 1.8062223700548676 -3.3535662807864477
H -3.333318969317255 1.9626924971598945 -2.6477321232443045
H -1.8796920576995118 2.2314623240598896 -3.030180596334217
O -8.356891622128014 0.7229907713764956 1.9803682091525703
H -7.388309337665942 0.6982207503315829 1.9945865488472556
H -8.581198000578834 0.5739775913468418 1.0495386516804595
O -3.4874244757683766 1.9853080321094645 5.810389604845596
H -2.936743950469443 1.2862796543719843 6.193896636168619
H -3.1254894146283054 2.8014900055767535 6.186968868752379
O -1.7524897873818253 8.408846774171565 -2.4112625234382907
H -1.9560629318559266 8.885806030037289 -1.592705744715555
H -0.9893314854985678 7.859086263776754 -2.1782073115740217
O -6.2644671124976234 -7.982381076193729 -0.5525296078079234
H -7.128236027228562 -7.907347916251828 -0.11981648834692171
H -5.662910768820729 -8.227231726182005 0.16659490775416064
O 8.25596431818996 0.12595697933937888 7.097333266758792
H 7.932738684827437 -0.25121639269869744 7.9293385517557216
H 7.44906370507953 0.29688971050238866 6.588751566066401
O 9.786420408756406 -4.099831145201463 5.020013112256107
H 9.607437871029594 -4.477148545131877 4.145619500775202
H 8.97214460824059 -3.622976979633301 5.240301490920562
O 7.456944502052502 4.6003978186306185 6.1569286244814245
H 7.554400413736347 5.452938664939707 6.607088382292421
H 7.5369007023000485 4.82157947426154 5.216903292081103
O 10.820303797214027 -7.424726130781162 3.2847484584874236
H 9.94206460132063 -7.729785519720699 3.0116147166751785
H 11.208923039390754 -7.071088673141255 2.4705755177285402
O -4.4100777681303125 6.297108873586765 1.1783995063426869
H -3.6097714542395023 5.9602677170272855 0.7482655782526361
H -5.1183302043194425 5.737332519583272 0.826276140985152
O -6.484524156492705 -10.051219805154194 4.759636370107462
H -6.782965640990099 -10.024491266438195 5.681149051761438
H -5.896451142155441 -9.285018036381054 4.681745910889453
O 2.254801223771233 6.351762099748863 5.286817046779479
H 1.7169176324324376 6.842685587732079 4.647565352988314
H 2.8054112837683944 5.775473593967542 4.735743490678071
O 0.5254857283069052 -2.5397761307780167 -8.100480650647865
H 0.507170090529395 -3.054007892213667 -7.279385290873135
H 0.8020462732867886 -1.6554914137973953 -7.816725917515655
C -16.796810966045218 8.92496544516949 1.1009691973318922
O -17.478903638009896 9.651513487079944 0.43787358812597066
O -16.11471829408054 8.198417403259038 1.7640648065378146
O 0.1102400332723612 3.925954238505877 -7.590632951355218
H 0.5617791895645821 3.4282945222060297 -6.892482140994544
H -0.7105965170359452 4.225031951713046 -7.171417227126355
O -21.551826661855703 5.432114818632791 10.055421470587897
H -20.636383246823804 5.428948781809453 10.373101635196221
H -21.47435436466781 5.207510327235728 9.115999941181265
O 10.155511345669595 -7.6326934704480225 -15.236328883432979
H 10.057153604795058 -7.775899682146707 -16.18963108768983
H 10.256799313849358 -8.525953037875848 -14.87467983117282
O -17.20769169587907 2.321598498255378 -3.5111391877543117
H -17.08744009684663 2.654771568991012 -4.413082985763219
H -17.361680069744196 3.1206451351542377 -2.9850460428883148
O -11.776163138470768 8.26965483305139 2.4240714019234706
H -11.465638256904437 8.731142255383412 3.2175265133554687
H -10.960732662512363 8.027197809900496 1.9601213236789927
O 7.637697468666227 -6.930654941542816 -5.704392249986737
H 7.2550588157584635 -7.0744869915147515 -6.582952071286234
H 8.582133694392262 -6.801711502307567 -5.87867865024376
O 11.30527213067411 10.042372105467319 1.887983764949511
H 11.874543220924739 10.125374466818652 1.1082348369509143
H 11.85415932854297 9.565972857598961 2.5288648342175435
O -1.8540266605644236 6.702778622651158 5.933595483428078
H -0.9589951745742795 6.809939346748309 6.289126881756341
H -2.3731844817640058 7.375014994255195 6.400002346242019
O -8.902535289624302 -11.302633402589993 12.40508666100169
H -9.169536422563585 -10.44672177551145 12.772636710030254
H -8.377322884506643 -11.70724585390134 13.111770917267771
O 5.504818194123629 -2.077382606481066 -11.3677762251864
H 6.455226164047572 -1.9592030540611294 -11.220380021046418
H 5.1109783300299645 -1.2633001874550938 -11.019750477886713
O 9.552575669169535 7.647914657195834 6.514881756231944
H 10.454029368957698 7.396054693742547 6.76571066773845
H 9.578565724119143 7.6772047934656085 5.54667281738609
O -8.098914987370048 11.238293084038569 -10.978442637031058
H -7.435799388388891 11.305249830246295 -10.275049536819566
H -8.558685732655281 12.090749198208862 -10.948586657838499
O -3.6526326895848182 -16.956011779621903 -15.26872174679151
H -4.127070503468527 -16.54914764055683 -14.528223475355249
H -2.8245290447621905 -16.455385013742042 -15.319506971179575
O -5.958691927620106 10.787904838450235 1.3803470064569874
H -5.693924833354274 10.324667934853963 0.5714729038671171
H -5.6504894804911805 11.696038236078103 1.2415416463421538
O 5.169467129982699 -16.8352667596894 -4.689678120308828
H 5.812295837787113 -16.995915981928434 -3.9826205295027446
H 5.700942264615929 -16.462044742939952 -5.408845313512234
O -6.79092282225548 1.6521081557905788 14.305377217922324
H -6.686696934606979 0.9079534548110586 13.693545458159916
H -7.744213310220809 1.8258608897777493 14.302347814217658
O 7.131613976554373 9.70551485616405 -8.680635246503432
H 6.279691186424502 9.257431484042995 -8.792063286897056
H 7.563906564094706 9.212377491732624 -7.967262550881214
O -9.768725761741994 -3.6966350862149353 -7.575582541817324
H -10.651180749642746 -3.2964240438446755 -7.567116563197217
H -9.397247458995889 -3.4625161713680743 -6.711780395142636
O 5.741744949600961 20.284902804188647 -8.404963690680791
H 5.257208470764393 20.90835131320152 -8.966660863707583
H 5.044477083862299 19.782646266713208 -7.957171508668381
O 7.877000881714909 2.245391687726615 -19.00302865584313
H 6.939471918379167 2.427161262501638 -18.838813487564696
H 8.051367709138988 2.668590474629932 -19.857113511438655