194

C -5.0710522388059704 1.0783507462686561 0.47044029850746183
C -3.8153522388059704 0.1782507462686569 0.19534029850746193
C -4.11845223880597 -1.3219492537313435 0.5608402985074619
C -2.96945223880597 -2.3874492537313436 0.7034402985074619
C -2.52015223880597 0.7359507462686565 0.7384402985074618
C -2.20305223880597 0.7852507462686571 2.097440298507462
C -1.5755522388059702 1.205650746268656 -0.18965970149253808
C -0.9533522388059701 1.2695507462686564 2.508640298507462
H -2.91125223880597 0.4298507462686567 2.840840298507462
C -0.32655223880597006 1.6562507462686575 0.21554029850746192
H -1.7850522388059702 1.178550746268657 -1.2573597014925382
C 0.004447761194029898 1.6956507462686563 1.569740298507462
H -0.7158522388059702 1.2676507462686573 3.5705402985074617
H 0.3943477611940298 1.9193507462686572 -0.5551597014925382
C -1.76045223880597 -2.1592492537313435 -0.1734597014925381
C -0.5287522388059701 -1.936549253731343 0.464840298507462
C -1.8068522388059702 -2.121249253731343 -1.5681597014925381
C 0.6114477611940299 -1.614449253731343 -0.2582597014925381
H -0.4544522388059702 -1.954049253731343 1.5506402985074619
C -0.6479522388059701 -1.8270492537313432 -2.2998597014925384
H -2.74345223880597 -2.290549253731343 -2.092259701492538
C 0.5698477611940298 -1.5506492537313434 -1.6506597014925382
H 1.5072477611940298 -1.351949253731343 0.2991402985074618
H -0.7173522388059701 -1.7640492537313435 -3.3840597014925375
C 1.7791477611940298 -1.082849253731343 -2.4255597014925376
H 1.4739477611940297 -0.9102492537313429 -3.464259701492538
H 2.1252477611940295 -0.1337492537313434 -2.0010597014925384
C 1.3965477611940298 2.0964507462686566 1.997440298507462
H 1.51704776119403 1.8448507462686567 3.057640298507462
H 2.1256477611940294 1.5207507462686571 1.4165402985074618
C 3.94864776119403 -1.4275492537313434 -3.522959701492538
H 4.81734776119403 -2.087049253731343 -3.615159701492538
H 3.4305477611940303 -1.3641492537313429 -4.484459701492538
H 4.26984776119403 -0.441449253731343 -3.176459701492538
C 2.60904776119403 -3.4296492537313434 -2.8992597014925376
H 1.9825477611940296 -3.869549253731343 -2.119359701492538
H 2.06294776119403 -3.373349253731343 -3.845759701492538
H 3.5215477611940305 -4.019849253731343 -3.0234597014925377
C 3.7281477611940304 -2.060049253731343 -1.156659701492538
H 3.9048477611940298 -1.032549253731343 -0.8295597014925382
H 3.12924776119403 -2.623249253731343 -0.4404597014925382
H 4.68244776119403 -2.5769492537313434 -1.3005597014925383
C 3.1110477611940297 3.755250746268656 2.588740298507462
H 3.40124776119403 4.809350746268656 2.534540298507462
H 2.9823477611940303 3.461750746268656 3.634840298507462
H 3.86514776119403 3.1392507462686563 2.091540298507462
C 1.99744776119403 3.9574507462686572 0.40494029850746194
H 2.67914776119403 3.230350746268657 -0.04295970149253803
H 1.03214776119403 3.981150746268657 -0.10175970149253821
H 2.4399477611940297 4.958250746268657 0.368240298507462
C 0.7418477611940297 4.4992507462686575 2.475440298507462
H -0.18475223880597014 4.424250746268656 1.901240298507462
H 0.57844776119403 4.189650746268656 3.511940298507462
H 1.1210477611940297 5.524350746268658 2.4432402985074617
N 3.00114776119403 -2.025349253731343 -2.490159701492538
N 1.7831477611940298 3.586450746268657 1.862540298507462
C -3.55075223880597 -3.8435492537313434 0.6444402985074619
H -2.62515223880597 -2.2736492537313433 1.7424402985074618
H -4.67195223880597 -1.3478492537313436 1.5102402985074619
H -4.83415223880597 -1.6757492537313432 -0.1945597014925382
H -3.7169522388059697 0.17335074626865676 -0.900559701492538
H -3.9132522388059705 -4.043149253731343 -0.34225970149253815
H -4.35435223880597 -3.9354492537313432 1.3449402985074619
H -2.78115223880597 -4.545049253731343 0.8904402985074619
H -5.24235223880597 1.138950746268657 1.5249402985074618
H -5.92805223880597 0.6501507462686567 -0.006059701492538094
H -4.89895223880597 2.059650746268657 0.08004029850746197
C 3.934390154586273 -0.9584100583102699 2.451962774861306
O 4.457047183707412 -1.263186735159027 3.512960562681475
O 4.078295441025716 -1.567717869150446 1.3858170417253837
O 3.1806735373914385 0.0065040391627271266 2.2802058831153063
O -2.563376172285721 -5.746869792926245 -2.1484618526954216
H -2.4343503503334247 -5.795592848549308 -1.1893238240362052
H -3.5086207548545483 -5.558381512584748 -2.2481954558499617
O -6.1833855202485 -2.0677729408933825 -2.74795743347699
H -6.115023973888341 -2.0883792191805495 -1.7815882301316015
H -6.195596391778555 -3.0028733421754747 -3.001729138831521
O -8.591764671937181 -0.1376481174149904 0.3607736609964136
H -8.401530713901778 0.8047217947703981 0.23945858889946248
H -9.49139648756829 -0.2411083201395487 0.015925104298744053
O 2.695223103025615 4.58226147765796 6.793209623729662
H 2.699616462410895 4.533281461830539 7.760964248282217
H 2.8415932870704923 3.666635573269976 6.511843462408951
O 0.5152366193307496 5.112891916696849 -5.887430590468795
H 1.0589110377939632 5.507321484653582 -5.1889960555765455
H 0.6999121035182929 5.66055359480849 -6.665198933979919
O -0.7656202972496527 -7.106568929079077 5.661979197536111
H -0.5329547966621196 -7.202616086163587 6.597719046720881
H -0.3528956550141534 -7.874054303475795 5.2382027068258425
O -7.897341750885399 -5.8535144223576125 1.8428185822135412
H -7.135851375931764 -5.412004219510813 2.2479957120409164
H -7.7394598900820135 -6.794527115451759 2.011727947747135
O 0.5069271127397328 8.221738983574358 3.025085861864773
H 0.24257712916877683 8.556680724595282 2.155085589906247
H 1.3717705716628381 8.630297842185124 3.180287005251629
O 8.398610449979032 2.0472523308848003 0.15882449381051128
H 8.331497018456442 1.4930956579586396 0.9508936360327491
H 7.58703903898366 1.851621320638992 -0.33315344978572425
O 3.4536909242158287 -3.0567093375744046 -7.086169523013527
H 3.42818705765194 -3.0596382826747814 -8.05483268994561
H 4.066505555703996 -3.774304656802125 -6.865994298348063
O -3.574682601976403 9.942861936821618 -3.2647907973419685
H -3.8768859643208238 10.305358487596298 -4.111098504599907
H -4.323120491113166 9.409244386232245 -2.9581069534448643
O -0.6983924734613253 9.352230478644286 -1.0248273890305666
H 0.07889065888575564 8.983751171693267 -1.470945410878607
H -1.20969788842202 8.57193120219938 -0.762793505512755
O -3.280604725502768 7.457718876976911 2.146226130591932
H -3.345025106223685 7.327526859429474 1.1881721602882225
H -4.046893212993339 8.011232704982113 2.3592668319765235
O -1.9362937342805338 3.00542207649732 -4.149977855362557
H -1.9170186014009958 2.9373533516257027 -3.1835605154690554
H -1.2641545904023066 2.3717772543253104 -4.442698122684866
O 0.261197631712879 1.0327710946207607 7.235275010664616
H 0.3988302889468983 0.9783221886835975 6.277642552356655
H 0.9424070387382193 1.653451874427815 7.534726271570779
O 7.438045376151557 -0.6867353620568992 -7.061649973020149
H 6.588823302574483 -0.9853624345755865 -7.420273868220085
H 7.236133729386712 -0.4573653792699872 -6.142094079016397
O -9.369185874070906 0.14933939205521973 -3.2626714953243283
H -9.275964780606852 0.09713914119006795 -4.225766671536411
H -8.492177488194784 0.4260304168247875 -2.9572859812361116
O 4.386744754134373 2.5090303524040363 -2.155150877031029
H 5.337591927938381 2.6903438347467157 -2.1996753656828143
H 3.975921935781323 3.364624694804441 -2.350458013287936
O -5.740293307377247 0.04986925197565206 -6.842853494921922
H -5.811472251705694 0.20862488468773188 -5.88959719996947
H -5.695807154109258 -0.9152871373650817 -6.916718713950732
O 0.9631011356784906 -1.2093610737139033 9.352600359213017
H 0.7526132910599768 -0.34759389203679714 8.96270351548105
H 1.807422184625626 -1.0618112660119632 9.804610275975836
C 9.95473979231361 -19.35378213122108 5.131692984245591
O 10.058512031394518 -18.76897499358772 4.092438351602942
O 9.850967553232703 -19.93858926885445 6.170947616888238
O -4.482052469299474 -9.611542107878936 0.9353335167527481
H -4.181937622837461 -9.724533691496221 0.020931341632445477
H -5.4181035022473925 -9.37702691207968 0.8471687224390823
O -2.9108787779974143 -4.260656687931709 9.952787924866321
H -2.896870644743605 -5.110467084306818 10.418183906064616
H -3.001451069010807 -4.506209769280834 9.01980223974541
O -8.50954685622042 8.669759420983887 8.726235272672177
H -9.313367774377284 8.6668320855178 8.185096917775274
H -8.804559376593101 8.332470695799808 9.58540107331083
O 17.41612870536827 -9.893957419166533 -3.1329611640977277
H 18.327295083357626 -9.567003072613723 -3.090018833094592
H 17.281231801578297 -10.32434800054596 -2.2753314554776525
O -10.409716558095962 -18.831658266304366 -4.885436821603324
H -10.715398118590752 -17.91399846290009 -4.826899434494788
H -10.954714268900648 -19.301743777358894 -4.236623249138739
O 14.578630392784905 5.000900016523358 -16.19676345380817
H 15.386401795543755 5.507442620013025 -16.023883991075
H 14.127564098915851 4.979848220221545 -15.339408238796503
O -0.4954934059962861 14.996878357958416 2.4555550529070005
H -1.1216935653325808 14.860690866140487 3.1823931947374513
H -0.1835040508292045 14.103966474089814 2.2450011305767523
O 2.57056597300437 2.29899940186632 12.777955123778407
H 2.574049274853534 2.3112279315229047 13.746874979375693
H 2.109307656200379 3.115874598678825 12.535225598768205
O -2.478887536336584 -7.969689712660564 3.1181437773273526
H -2.5498189085006553 -7.06017118342828 2.7914755322742666
H -1.7170918984759918 -7.944742574708429 3.7164806312353926
O -7.106516884085425 19.894232381896913 -7.452935475006088
H -7.173369098578064 19.889140796887464 -6.486254444841782
H -8.013288086131455 19.727498490399373 -7.751143021634417
O 18.033778671535174 9.149036966812416 -0.13251750561406261
H 17.634637850084875 8.38004182201819 -0.5664534788115976
H 18.766398617560974 9.393853671448362 -0.7175771095146777
O 14.6755448029971 -1.7528333337749396 11.616330668038426
H 14.628709542344668 -1.6079230936949407 12.573291919907893
H 14.535249252366105 -0.871417704252464 11.238990515382172
O 7.661772307752263 -4.188991154887477 -12.574359481039693
H 8.53000386444127 -4.486425975912272 -12.263435297175953
H 7.28366818899176 -4.973789287936731 -12.998730910378127
O -15.068506165690135 15.386263917170332 -8.645317967299896
H -14.775705573022597 14.65328028556261 -9.207430203093336
H -14.417355619701159 15.405678009451632 -7.927970071381081
O -4.221620541020183 -9.691022075710997 8.304042145386967
H -4.00591006979265 -8.848442014239945 8.731236702368014
H -4.8495945421878 -10.108103201549874 8.912855690428884
O 6.306547823056688 15.61261246275042 20.098887318956585
H 5.768556204681696 15.719455886777649 20.897709488278636
H 7.16574124675744 15.988062224034708 20.343399244475457
O -12.181433440451586 15.840650684174378 5.934352819625017
H -12.197866621810899 15.33569975544716 5.107478060651244
H -12.89646754760914 15.451906716641695 6.46024852944622
O -1.294380166482135 -11.384916855660077 2.5540711927501025
H -1.4317574151210897 -11.325255938704041 1.5967126269847163
H -2.172028691852872 -11.60084031769996 2.9034593275733687
O 9.096100551264778 -10.030762236982175 -2.3111905711971725
H 9.568942251514768 -9.522422604226504 -1.6351884253614277
H 8.375190063026023 -10.45585719572772 -1.8227806119452312
O 3.703428394147292 19.445158058042974 2.837443281746415
H 3.1262958302942216 18.878386351933933 2.303912407480797
H 3.1364027459265205 19.735294572687014 3.567693007134944