194

C -5.0710522388059704 1.0783507462686561 0.47044029850746183
C -3.8153522388059704 0.1782507462686569 0.19534029850746193
C -4.11845223880597 -1.3219492537313435 0.5608402985074619
C -2.96945223880597 -2.3874492537313436 0.7034402985074619
C -2.52015223880597 0.7359507462686565 0.7384402985074618
C -2.20305223880597 0.7852507462686571 2.097440298507462
C -1.5755522388059702 1.205650746268656 -0.18965970149253808
C -0.9533522388059701 1.2695507462686564 2.508640298507462
H -2.91125223880597 0.4298507462686567 2.840840298507462
C -0.32655223880597006 1.6562507462686575 0.21554029850746192
H -1.7850522388059702 1.178550746268657 -1.2573597014925382
C 0.004447761194029898 1.6956507462686563 1.569740298507462
H -0.7158522388059702 1.2676507462686573 3.5705402985074617
H 0.3943477611940298 1.9193507462686572 -0.5551597014925382
C -1.76045223880597 -2.1592492537313435 -0.1734597014925381
C -0.5287522388059701 -1.936549253731343 0.464840298507462
C -1.8068522388059702 -2.121249253731343 -1.5681597014925381
C 0.6114477611940299 -1.614449253731343 -0.2582597014925381
H -0.4544522388059702 -1.954049253731343 1.5506402985074619
C -0.6479522388059701 -1.8270492537313432 -2.2998597014925384
H -2.74345223880597 -2.290549253731343 -2.092259701492538
C 0.5698477611940298 -1.5506492537313434 -1.6506597014925382
H 1.5072477611940298 -1.351949253731343 0.2991402985074618
H -0.7173522388059701 -1.7640492537313435 -3.3840597014925375
C 1.7791477611940298 -1.082849253731343 -2.4255597014925376
H 1.4739477611940297 -0.9102492537313429 -3.464259701492538
H 2.1252477611940295 -0.1337492537313434 -2.0010597014925384
C 1.3965477611940298 2.0964507462686566 1.997440298507462
H 1.51704776119403 1.8448507462686567 3.057640298507462
H 2.1256477611940294 1.5207507462686571 1.4165402985074618
C 3.94864776119403 -1.4275492537313434 -3.522959701492538
H 4.81734776119403 -2.087049253731343 -3.615159701492538
H 3.4305477611940303 -1.3641492537313429 -4.484459701492538
H 4.26984776119403 -0.441449253731343 -3.176459701492538
C 2.60904776119403 -3.4296492537313434 -2.8992597014925376
H 1.9825477611940296 -3.869549253731343 -2.119359701492538
H 2.06294776119403 -3.373349253731343 -3.845759701492538
H 3.5215477611940305 -4.019849253731343 -3.0234597014925377
C 3.7281477611940304 -2.060049253731343 -1.156659701492538
H 3.9048477611940298 -1.032549253731343 -0.8295597014925382
H 3.12924776119403 -2.623249253731343 -0.4404597014925382
H 4.68244776119403 -2.5769492537313434 -1.3005597014925383
C 3.1110477611940297 3.755250746268656 2.588740298507462
H 3.40124776119403 4.809350746268656 2.534540298507462
H 2.9823477611940303 3.461750746268656 3.634840298507462
H 3.86514776119403 3.1392507462686563 2.091540298507462
C 1.99744776119403 3.9574507462686572 0.40494029850746194
H 2.67914776119403 3.230350746268657 -0.04295970149253803
H 1.03214776119403 3.981150746268657 -0.10175970149253821
H 2.4399477611940297 4.958250746268657 0.368240298507462
C 0.7418477611940297 4.4992507462686575 2.475440298507462
H -0.18475223880597014 4.424250746268656 1.901240298507462
H 0.57844776119403 4.189650746268656 3.511940298507462
H 1.1210477611940297 5.524350746268658 2.4432402985074617
N 3.00114776119403 -2.025349253731343 -2.490159701492538
N 1.7831477611940298 3.586450746268657 1.862540298507462
C -3.55075223880597 -3.8435492537313434 0.6444402985074619
H -2.62515223880597 -2.2736492537313433 1.7424402985074618
H -4.67195223880597 -1.3478492537313436 1.5102402985074619
H -4.83415223880597 -1.6757492537313432 -0.1945597014925382
H -3.7169522388059697 0.17335074626865676 -0.900559701492538
H -3.9132522388059705 -4.043149253731343 -0.34225970149253815
H -4.35435223880597 -3.9354492537313432 1.3449402985074619
H -2.78115223880597 -4.545049253731343 0.8904402985074619
H -5.24235223880597 1.138950746268657 1.5249402985074618
H -5.92805223880597 0.6501507462686567 -0.006059701492538094
H -4.89895223880597 2.059650746268657 0.08004029850746197
C -1.4109730667992109 0.5076369416335631 -3.9174669006817915
O -0.6683867487220204 0.22569201150202012 -2.989647890757075
O -2.5549501140727013 0.9621191653574837 -3.8017349356488492
O -1.1333914435142391 0.3821071661816525 -5.115731939097531
O -2.230742106461913 4.125332268234299 -5.622314008878713
H -2.0998476779753767 4.244339602122855 -6.575031836974694
H -1.457106902829979 4.552297065508471 -5.22463124851563
O 1.430832587484423 4.199842322722889 10.90252573431967
H 1.9472724373225023 3.496622219635276 10.480935026389966
H 1.0068463152532663 3.7600465448792093 11.65470740057484
O 3.0952594859296205 -4.987623397171047 1.3514435662403415
H 3.401345402107229 -5.831724712913898 1.7158221297960243
H 3.8900997494813927 -4.433410692200143 1.345184382125629
O 9.375845994483404 -3.3983034141687725 -6.036514221217086
H 9.54036551775212 -2.994150329663764 -6.901708400374877
H 9.46061407219806 -2.6607864289001775 -5.413742181269175
O 0.7886179557288919 -6.528670624103624 -0.3856074236571292
H 0.7251226304615372 -6.561648322452058 -1.3519656243160947
H 1.3997497087569912 -5.796048436469095 -0.2160649365738026
O -1.0719891269520812 8.106417036660364 7.062210250534193
H -1.7602070327672035 8.768082297778786 7.228109476706406
H -1.5661406246736398 7.284651161899076 6.922649909902068
O -7.494563326766094 7.048884688725193 0.5313849854791898
H -8.429271238879423 7.012240641292607 0.7842598353961019
H -7.442787625091066 7.81199127464513 -0.06355161580003699
O -6.438444670500784 0.18854336834822116 -7.493407309526359
H -6.28890469939985 0.5166046531128412 -8.392840991006945
H -6.847488271893795 -0.6798278489986738 -7.625984477028561
O -1.2264641053695122 7.294313669294812 1.8984499050954102
H -1.3697160831343744 7.282311209577198 2.856730745312506
H -2.025790314514004 7.714919769614097 1.5475509680082478
O 2.695392388951911 0.2562102471224707 3.4314983601182147
H 2.1251297621989456 -0.08438399382422723 2.7259748265186956
H 3.201222292250649 -0.518925770120866 3.7183122509968243
O -2.4844028976015644 -1.2781874948676406 5.914375463253133
H -2.755005570248172 -1.2288925192917692 4.985229857957877
H -3.2157794479550903 -1.74412184575099 6.346758934907505
O 8.389486394880858 -3.805696744189632 3.1715855873707484
H 7.57105636242175 -3.3265730343641686 3.3705330918840444
H 8.919728555014839 -3.166186921860925 2.672754570831525
O 6.722434485455487 3.251177672482014 -2.38078344542807
H 6.443167526384279 2.9843784855203745 -1.492079042205193
H 7.18027287565797 4.0933900968551535 -2.239276608178708
O -7.4448925504937105 2.59698745994295 5.567259277341659
H -7.522186524317378 2.5936665314018317 6.5331691954728335
H -8.308896158045833 2.9143802887247485 5.264403696784186
O -6.732160787461978 -1.5038813702691478 7.747750433032877
H -7.399834881532982 -1.0200664065387337 8.256770807749845
H -7.215351413512606 -2.2644080999552614 7.391256594895739
O 3.894913858729364 7.426098021373635 -3.581929511684025
H 4.334228400228878 8.180177524140293 -3.1608188444785217
H 3.260388080215442 7.834481254711377 -4.189845719257003
O -0.5379375536185069 -10.444519660526637 -3.8510851802996955
H -0.7292147555663222 -9.822869667845817 -4.569369020793797
H -0.43339762584567953 -11.296566485503856 -4.300584408160537
O 1.8663738032210775 1.3522005332050178 -7.86779219527062
H 0.9455782604515037 1.1113392784431628 -7.6858889757547715
H 2.2967155109527106 1.3033078892001126 -7.000971874645387
O 10.794732809205872 1.684132229535087 2.296289839706634
H 10.763340103468249 1.6354551583737162 1.3290192479539313
H 9.959229631113667 1.2822911621990158 2.578105631137899
O 1.497067266006891 -7.442698674379372 -4.4209174228984
H 1.2059015459237132 -7.595293641520607 -3.5093777055236655
H 2.301793958040563 -6.911714638941351 -4.32379456493748
C 2.049105375341363 -17.545704783154637 6.629435181305543
O 1.912619141630898 -17.12484010287827 5.5172019835437585
O 2.1855916090518277 -17.966569463431 7.741668379067328
O -15.448694006794378 4.405595771583761 -1.3137621037120435
H -15.383481937750608 4.215979833126618 -0.365732284120883
H -15.7606732910901 3.5726011525275343 -1.6981458118653685
O -11.13838982669685 -5.02844051135366 8.358932322708723
H -10.704621895473826 -5.007562129655468 7.4926893822352305
H -10.937918638380133 -4.161261148050271 8.742042227064658
O -0.05167364827629495 -16.27103408737212 2.571641054195971
H 0.7486227330434378 -16.450318624924748 3.0877322414304365
H -0.07679847715999721 -16.989246323304446 1.92163961463553
O -3.7864967378030263 -8.638921432041359 -7.639928692660332
H -2.9128669440578348 -8.655961496121112 -7.221063587170637
H -3.8638132270727876 -7.736146517310228 -7.983413129162485
O 5.203202797544621 11.175044030642866 1.2853779123127747
H 4.823572966622189 10.417663056890953 1.7557209881334073
H 4.520749648338031 11.859475948175042 1.354461873557316
O 2.1888154031440674 -10.559186024483134 -18.825266774062737
H 2.2906128646273247 -10.700020551912793 -17.871972344403552
H 1.383037972924745 -10.02594858259043 -18.898359234774293
O -18.227258243350587 -11.852186732326274 2.9795253663833163
H -19.097134868259204 -11.55052734487661 3.2816571725558648
H -18.189944973572942 -11.569034019613179 2.0535695329432366
O -8.021909163929262 12.948248014378823 1.5588002460590231
H -7.7875660140113805 13.112780889324306 0.6330683312755148
H -7.300400542349989 13.358020178827115 2.059274048100788
O 15.777514707450852 -5.529450716054009 10.696876923579751
H 15.859354586082517 -6.433552231031873 11.035801755629993
H 15.843536491822935 -4.975579608944505 11.48923408105207
O -6.012776072242744 11.28447342934791 3.2492863027723358
H -6.819357675474636 10.914138383818528 2.860383450789196
H -6.321103510981187 12.07233409972741 3.721696822225657
O -8.484933574398426 14.231434952676683 -4.892001591961771
H -7.719944735159393 13.931461529711926 -4.378410920069724
H -9.096026001462672 13.480006775946869 -4.862274750534553
O 16.9922692101798 -9.943050578177203 -9.438804855765909
H 17.157076934273206 -10.824026293321582 -9.807162779944282
H 17.78547782469282 -9.43874776367499 -9.674305831236243
O -17.28284108249566 1.5785601160073481 -1.3581029271237763
H -16.433534596938678 1.1593541958060811 -1.1533781192497485
H -17.641656373488026 1.0403035158019112 -2.0795551872112683
O 14.429543565184506 -2.634096908707746 9.186270777231814
H 14.320472175160205 -2.544214046467658 10.144911408466323
H 14.821094660783661 -3.5136673943056835 9.076701417006856
O -11.937637778436368 -11.572690221855602 -4.293122032172813
H -11.849826423857138 -12.483503052081002 -4.611989577093523
H -11.089610405432293 -11.162456667932787 -4.520102097754927
O 2.2193076283038957 0.3042010817682321 17.48411031487679
H 1.8025904421352976 -0.5528139434868308 17.65972178984011
H 2.299587449062673 0.33201477148536096 16.518841702860808
O -16.606603391728967 10.679895333447748 3.0243617959928955
H -15.777088196888538 11.094483432879123 3.305410913121417
H -17.146807812646223 10.668408406015628 3.828730603456002
O -1.0730428823359839 -9.54506454323771 -23.490154391178557
H -0.7970819895272889 -9.971341960329688 -22.664866255908446
H -0.9483326413806843 -8.599609967216995 -23.31832614908093
O 4.496000605034123 -7.957071735763776 10.36204256415789
H 4.687944460047101 -8.044546931485403 11.307808393291202
H 3.535993318049697 -8.076285228756753 10.306041704117924
O 5.285849289186797 -18.964465244126714 10.4840666464064
H 4.524164364713541 -18.37622531487474 10.371030287814094
H 6.049541546834147 -18.39560190361716 10.304816598334423