194

C -5.0710522388059704 1.0783507462686561 0.47044029850746183
C -3.8153522388059704 0.1782507462686569 0.19534029850746193
C -4.11845223880597 -1.3219492537313435 0.5608402985074619
C -2.96945223880597 -2.3874492537313436 0.7034402985074619
C -2.52015223880597 0.7359507462686565 0.7384402985074618
C -2.20305223880597 0.7852507462686571 2.097440298507462
C -1.5755522388059702 1.205650746268656 -0.18965970149253808
C -0.9533522388059701 1.2695507462686564 2.508640298507462
H -2.91125223880597 0.4298507462686567 2.840840298507462
C -0.32655223880597006 1.6562507462686575 0.21554029850746192
H -1.7850522388059702 1.178550746268657 -1.2573597014925382
C 0.004447761194029898 1.6956507462686563 1.569740298507462
H -0.7158522388059702 1.2676507462686573 3.5705402985074617
H 0.3943477611940298 1.9193507462686572 -0.5551597014925382
C -1.76045223880597 -2.1592492537313435 -0.1734597014925381
C -0.5287522388059701 -1.936549253731343 0.464840298507462
C -1.8068522388059702 -2.121249253731343 -1.5681597014925381
C 0.6114477611940299 -1.614449253731343 -0.2582597014925381
H -0.4544522388059702 -1.954049253731343 1.5506402985074619
C -0.6479522388059701 -1.8270492537313432 -2.2998597014925384
H -2.74345223880597 -2.290549253731343 -2.092259701492538
C 0.5698477611940298 -1.5506492537313434 -1.6506597014925382
H 1.5072477611940298 -1.351949253731343 0.2991402985074618
H -0.7173522388059701 -1.7640492537313435 -3.3840597014925375
C 1.7791477611940298 -1.082849253731343 -2.4255597014925376
H 1.4739477611940297 -0.9102492537313429 -3.464259701492538
H 2.1252477611940295 -0.1337492537313434 -2.0010597014925384
C 1.3965477611940298 2.0964507462686566 1.997440298507462
H 1.51704776119403 1.8448507462686567 3.057640298507462
H 2.1256477611940294 1.5207507462686571 1.4165402985074618
C 3.94864776119403 -1.4275492537313434 -3.522959701492538
H 4.81734776119403 -2.087049253731343 -3.615159701492538
H 3.4305477611940303 -1.3641492537313429 -4.484459701492538
H 4.26984776119403 -0.441449253731343 -3.176459701492538
C 2.60904776119403 -3.4296492537313434 -2.8992597014925376
H 1.9825477611940296 -3.869549253731343 -2.119359701492538
H 2.06294776119403 -3.373349253731343 -3.845759701492538
H 3.5215477611940305 -4.019849253731343 -3.0234597014925377
C 3.7281477611940304 -2.060049253731343 -1.156659701492538
H 3.9048477611940298 -1.032549253731343 -0.8295597014925382
H 3.12924776119403 -2.623249253731343 -0.4404597014925382
H 4.68244776119403 -2.5769492537313434 -1.3005597014925383
C 3.1110477611940297 3.755250746268656 2.588740298507462
H 3.40124776119403 4.809350746268656 2.534540298507462
H 2.9823477611940303 3.461750746268656 3.634840298507462
H 3.86514776119403 3.1392507462686563 2.091540298507462
C 1.99744776119403 3.9574507462686572 0.40494029850746194
H 2.67914776119403 3.230350746268657 -0.04295970149253803
H 1.03214776119403 3.981150746268657 -0.10175970149253821
H 2.4399477611940297 4.958250746268657 0.368240298507462
C 0.7418477611940297 4.4992507462686575 2.475440298507462
H -0.18475223880597014 4.424250746268656 1.901240298507462
H 0.57844776119403 4.189650746268656 3.511940298507462
H 1.1210477611940297 5.524350746268658 2.4432402985074617
N 3.00114776119403 -2.025349253731343 -2.490159701492538
N 1.7831477611940298 3.586450746268657 1.862540298507462
C -3.55075223880597 -3.8435492537313434 0.6444402985074619
H -2.62515223880597 -2.2736492537313433 1.7424402985074618
H -4.67195223880597 -1.3478492537313436 1.5102402985074619
H -4.83415223880597 -1.6757492537313432 -0.1945597014925382
H -3.7169522388059697 0.17335074626865676 -0.900559701492538
H -3.9132522388059705 -4.043149253731343 -0.34225970149253815
H -4.35435223880597 -3.9354492537313432 1.3449402985074619
H -2.78115223880597 -4.545049253731343 0.8904402985074619
H -5.24235223880597 1.138950746268657 1.5249402985074618
H -5.92805223880597 0.6501507462686567 -0.006059701492538094
H -4.89895223880597 2.059650746268657 0.08004029850746197
C -3.1025003854985687 -0.9007389328896138 -4.019732318256946
O -2.283577190125601 -0.08021616539988075 -3.635177137936728
O -2.854571055699629 -2.0808190865910463 -4.292813519304276
O -4.305910614711409 -0.6779859327721267 -4.195326468400282
O 2.314888581687682 -2.0908909094753225 6.151118397686437
H 2.1746421091291213 -2.202672788854545 5.198856303892228
H 1.9987332428399958 -2.9232066668596364 6.533555616099969
O -3.9468400074444943 6.260237090065377 2.348112081747751
H -3.541843564549647 6.3781947642650465 1.4757410452959867
H -3.7097313955193196 7.068313932837493 2.827437927729756
O 6.152386242333738 -8.14842740057715 -1.3288638904381675
H 5.876048653678776 -8.966045381245184 -0.8882895701644016
H 5.37953557879604 -7.893176412888634 -1.8547067656902474
O 3.538418990036454 5.675865009148513 -9.965323824752716
H 4.187880221614337 6.376382486759345 -10.127936029519438
H 3.5320008387855326 5.1666791030479455 -10.789732985705614
O 10.206549771781642 -2.0273295104076956 2.468130526468427
H 10.808947519417664 -2.7385142400141538 2.2029879404554706
H 10.765520755118935 -1.4274899730444597 2.984566305150345
O 8.423629362114287 1.1021039066873146 2.962542854582037
H 8.655544267733632 1.1314177248468864 2.022158075081391
H 9.180678726118016 1.5162774778246328 3.403335841972839
O 8.40612138187761 -3.168452954780175 -1.2979858768348107
H 8.946265425893053 -2.969491676072713 -2.0774896793847004
H 8.67143224004911 -4.06756040642809 -1.0526740686650937
O -1.9818595953358802 -5.006529768174066 4.263313700406427
H -1.4784218233690858 -5.556003312316398 3.643961949827827
H -2.1035303528488143 -5.577227513791394 5.036917122201812
O -3.238508558017613 10.31445079635755 -6.458364491557459
H -3.475739563450018 9.42243611791511 -6.753319776990292
H -3.753554762076731 10.896908587206504 -7.036665688049089
O -2.1219745432041104 3.110513077892683 -2.0084697110561747
H -2.203666529186588 3.2893675632687707 -2.957313665237838
H -1.1986946287986118 3.3260357264076266 -1.8083044495034295
O 7.647886854686569 3.048040168692863 -0.018145833082523932
H 7.145505400734431 3.5595286596989912 0.6337435403492038
H 7.722910854335607 2.1686113216893292 0.38177696801125727
O -0.40004846776763303 -1.7321861953691284 5.832327467771378
H -1.0280945176794165 -0.9981222936415866 5.756990197640688
H 0.12704330548469622 -1.6734199468382045 5.021351059419498
O 4.7461788645455165 2.391346084705507 -1.607333684154036
H 5.217855276960709 1.5590308510682376 -1.4532555522648154
H 5.243229791635856 2.81276391761104 -2.324487315036455
O -1.540891958872027 6.87168467954859 -8.7603941950454
H -1.3882660500153765 5.915289636083131 -8.729069928407798
H -0.6565247874795657 7.2534162003416665 -8.654858909494543
O 0.3321431613261008 5.058784429190111 -3.6435951800402346
H 0.9304345183813063 4.996022064761021 -2.8839401961269373
H 0.7115287579766054 5.769334690277645 -4.1822479808522015
O 0.6333622883453626 -5.016400212706364 -8.563934800524772
H 1.2161472597384495 -5.64328618202395 -9.018184748781355
H 1.177677455164332 -4.220974135476757 -8.464033353418356
O -5.797263333071678 -8.948961875731582 2.4011255715538438
H -6.018006594833246 -8.005437163800831 2.402067517866887
H -5.146977978378944 -9.037913809065108 3.1139919372412495
O 2.7304915414139375 8.279855720878217 4.462979199333668
H 3.075816290632478 7.97340279113346 3.6110374311781155
H 1.8262374761791067 7.932466989611004 4.487628726607756
O 4.660734750510395 -2.9694237296459534 -6.957020850611615
H 4.8500512168046575 -2.696538765939681 -6.046712974630703
H 3.832329014854078 -3.466901239475442 -6.884757383731274
O 5.045525783187111 9.739528487934237 -0.8512613507158937
H 4.516973367316736 9.973227614438644 -1.6290687940131852
H 5.43593364742744 10.581302694105183 -0.5720484755389417
C -3.02437248947874 11.214620302794787 5.204369559228776
O -3.559272372746223 11.042048810948875 6.261213659549401
O -2.4894726062112564 11.3871917946407 4.147525458908153
O 10.210537904180851 9.231670174053964 5.193807176636389
H 9.760467497528193 9.799403284437638 5.837300068073109
H 9.578929512858965 8.514826794673018 5.03204082120522
O 5.480304946004134 12.677013670702067 11.08942891112733
H 6.264472266292743 12.604897838584893 11.654095429923542
H 4.739376192720425 12.545602301460558 11.699934913465981
O 13.939388995198529 -9.470574013604335 6.287469584553992
H 14.121811558882634 -9.486469472385147 5.335925208526753
H 14.731111577052419 -9.863970633702857 6.684176525478485
O 1.2719253779332185 7.638359935730973 -9.04349018955074
H 1.510649562640584 7.7443944813648455 -8.11035847555318
H 1.565066106277489 6.740378777768175 -9.25950013753829
O -3.223308932603108 18.224626698938884 -5.736526186869197
H -3.70499260337463 18.41632659535921 -6.555183226125876
H -2.8759123533980313 17.330435498728406 -5.873272881610793
O -10.190678856225745 -14.721429705983898 10.96550880462733
H -9.965637538747348 -15.012934142290492 10.069211462256416
H -10.225890068841279 -13.755596467665368 10.895592636502295
O -8.406288099984494 0.8211794034209912 1.5737501657190314
H -9.189578918467395 0.4272108152038312 1.1611830777459764
H -8.286051720307007 1.6564891371791708 1.0975539813675725
O 7.175867670680868 13.202667828259669 -11.684101029725197
H 6.851645888451608 12.30273714366096 -11.838931116419545
H 7.596166560210862 13.15329342835564 -10.812394108567647
O -4.501086206273712 1.6033271642742335 18.09681122328749
H -4.89201054738871 2.2260035397961833 17.46560630585524
H -3.911096515489006 2.153584274147857 18.63355252233322
O -13.085949683414908 9.31597774184311 0.7554189212581344
H -12.634057980703506 8.869439946732196 0.02373234665253321
H -13.041624040403079 10.254847112134975 0.5197889418426431
O -2.843977194168585 2.6675240852481803 2.7740536747356357
H -2.844423556191738 2.710268658575363 3.742113620767917
H -2.8088151520697626 3.5959395809852275 2.498789724370223
O 3.886269242264502 -1.0124236386079155 -18.147531362950204
H 3.542249299729672 -0.4088951331791377 -17.47197901177878
H 3.483878163458236 -1.865618936342271 -17.925943574656007
O -12.278395191889887 -8.16034369634505 -10.052028008613057
H -12.381629208535273 -9.123661730403745 -10.070151473087357
H -11.487259420251453 -7.999603539369589 -10.587965259669154
O -8.774857184407704 5.6209561208312335 14.359247606713806
H -8.90110992171287 4.949398206997573 15.046297511444415
H -7.812816134898405 5.724513793884596 14.307144135516374
O -6.642345586204262 -12.910594000556047 3.3931743961788126
H -6.503351738279568 -13.860516640620308 3.261663769108469
H -7.355005697581505 -12.866806672553885 4.048277578783055
O 10.818938218644519 20.229232345453564 6.740114688795685
H 10.848071254570335 20.26167228960977 7.708136523849465
H 10.16279228846785 19.54239155962249 6.548583496736656
O 1.457083591773582 8.259862624603171 -18.048409209103323
H 1.037534482134185 7.608370654572812 -18.63022027335593
H 1.4473225989691958 9.077959278231704 -18.567624513809633
O -8.773946915737874 1.1577075155230503 13.062742960226991
H -8.823807180260646 1.3302914211347812 12.110537044237425
H -8.55944544557253 2.0213555618780887 13.446231050816555
O 8.677191626811869 2.250442791749286 11.43773422474752
H 9.404699353338618 2.7315259971708823 11.015527149717784
H 7.990229415588531 2.923219287969581 11.55780358297303
O 13.359231076574726 3.680660840904886 -11.428156119874302
H 13.621943163364186 4.5341367468885005 -11.804358983048118
H 12.392707217555687 3.681917074360741 -11.497380365081073