194

C -5.0710522388059704 1.0783507462686561 0.47044029850746183
C -3.8153522388059704 0.1782507462686569 0.19534029850746193
C -4.11845223880597 -1.3219492537313435 0.5608402985074619
C -2.96945223880597 -2.3874492537313436 0.7034402985074619
C -2.52015223880597 0.7359507462686565 0.7384402985074618
C -2.20305223880597 0.7852507462686571 2.097440298507462
C -1.5755522388059702 1.205650746268656 -0.18965970149253808
C -0.9533522388059701 1.2695507462686564 2.508640298507462
H -2.91125223880597 0.4298507462686567 2.840840298507462
C -0.32655223880597006 1.6562507462686575 0.21554029850746192
H -1.7850522388059702 1.178550746268657 -1.2573597014925382
C 0.004447761194029898 1.6956507462686563 1.569740298507462
H -0.7158522388059702 1.2676507462686573 3.5705402985074617
H 0.3943477611940298 1.9193507462686572 -0.5551597014925382
C -1.76045223880597 -2.1592492537313435 -0.1734597014925381
C -0.5287522388059701 -1.936549253731343 0.464840298507462
C -1.8068522388059702 -2.121249253731343 -1.5681597014925381
C 0.6114477611940299 -1.614449253731343 -0.2582597014925381
H -0.4544522388059702 -1.954049253731343 1.5506402985074619
C -0.6479522388059701 -1.8270492537313432 -2.2998597014925384
H -2.74345223880597 -2.290549253731343 -2.092259701492538
C 0.5698477611940298 -1.5506492537313434 -1.6506597014925382
H 1.5072477611940298 -1.351949253731343 0.2991402985074618
H -0.7173522388059701 -1.7640492537313435 -3.3840597014925375
C 1.7791477611940298 -1.082849253731343 -2.4255597014925376
H 1.4739477611940297 -0.9102492537313429 -3.464259701492538
H 2.1252477611940295 -0.1337492537313434 -2.0010597014925384
C 1.3965477611940298 2.0964507462686566 1.997440298507462
H 1.51704776119403 1.8448507462686567 3.057640298507462
H 2.1256477611940294 1.5207507462686571 1.4165402985074618
C 3.94864776119403 -1.4275492537313434 -3.522959701492538
H 4.81734776119403 -2.087049253731343 -3.615159701492538
H 3.4305477611940303 -1.3641492537313429 -4.484459701492538
H 4.26984776119403 -0.441449253731343 -3.176459701492538
C 2.60904776119403 -3.4296492537313434 -2.8992597014925376
H 1.9825477611940296 -3.869549253731343 -2.119359701492538
H 2.06294776119403 -3.373349253731343 -3.845759701492538
H 3.5215477611940305 -4.019849253731343 -3.0234597014925377
C 3.7281477611940304 -2.060049253731343 -1.156659701492538
H 3.9048477611940298 -1.032549253731343 -0.8295597014925382
H 3.12924776119403 -2.623249253731343 -0.4404597014925382
H 4.68244776119403 -2.5769492537313434 -1.3005597014925383
C 3.1110477611940297 3.755250746268656 2.588740298507462
H 3.40124776119403 4.809350746268656 2.534540298507462
H 2.9823477611940303 3.461750746268656 3.634840298507462
H 3.86514776119403 3.1392507462686563 2.091540298507462
C 1.99744776119403 3.9574507462686572 0.40494029850746194
H 2.67914776119403 3.230350746268657 -0.04295970149253803
H 1.03214776119403 3.981150746268657 -0.10175970149253821
H 2.4399477611940297 4.958250746268657 0.368240298507462
C 0.7418477611940297 4.4992507462686575 2.475440298507462
H -0.18475223880597014 4.424250746268656 1.901240298507462
H 0.57844776119403 4.189650746268656 3.511940298507462
H 1.1210477611940297 5.524350746268658 2.4432402985074617
N 3.00114776119403 -2.025349253731343 -2.490159701492538
N 1.7831477611940298 3.586450746268657 1.862540298507462
C -3.55075223880597 -3.8435492537313434 0.6444402985074619
H -2.62515223880597 -2.2736492537313433 1.7424402985074618
H -4.67195223880597 -1.3478492537313436 1.5102402985074619
H -4.83415223880597 -1.6757492537313432 -0.1945597014925382
H -3.7169522388059697 0.17335074626865676 -0.900559701492538
H -3.9132522388059705 -4.043149253731343 -0.34225970149253815
H -4.35435223880597 -3.9354492537313432 1.3449402985074619
H -2.78115223880597 -4.545049253731343 0.8904402985074619
H -5.24235223880597 1.138950746268657 1.5249402985074618
H -5.92805223880597 0.6501507462686567 -0.006059701492538094
H -4.89895223880597 2.059650746268657 0.08004029850746197
C 0.9358596281459627 1.3274589381118571 -3.4176441742397192
O 1.211200061248193 1.0520746628120643 -4.575282565714658
O 1.3377761647303257 2.324908195449466 -2.807570784591651
O 0.21268440955074042 0.6512998734437625 -2.677053256879183
O 4.0877096880756625 -7.994583065317793 -7.43715016663355
H 3.178670683783304 -7.660519500454 -7.4052600395461035
H 4.2071538279953185 -8.26025493769648 -8.361332777358108
O 4.167933753097531 -7.758633357072671 -2.923146958950358
H 4.1734537817690445 -7.667556896898944 -3.8878448207628997
H 4.621806995689586 -8.600008958014827 -2.764880973665471
O 7.950610122564247 -3.4877572283457474 1.3520403143935285
H 8.376312351911784 -3.3152599737728847 0.49881720992825285
H 7.374102146274196 -4.246631616078788 1.1767971655495566
O -7.596146269278698 -4.557134902069125 -2.648682972732774
H -7.8121514085344606 -5.483007850626865 -2.8359486125178037
H -6.754720899195523 -4.41558598290529 -3.1079532573843527
O 0.47847894720405293 -6.440048251740819 -1.013732983734026
H 0.6373809897260472 -6.101238985433829 -0.11990650233684874
H 1.3275216270511576 -6.830073928567302 -1.2705762112368948
O 1.3820339780227355 -4.725684583121724 -5.555218458447944
H 2.1054488312867363 -4.459062763008214 -6.142203221466869
H 1.113536546032597 -5.593035492283234 -5.893705494671494
O 4.2627140843848945 10.936646285385848 -1.7854079309185922
H 3.889382199458289 10.440316442435517 -1.0416019430467225
H 4.496117149890083 10.251909425434555 -2.4300942003061303
O 4.207125483365597 6.540524390116864 -1.4124189721231186
H 4.795730626363439 6.168436877167577 -0.7385775773990308
H 4.208816693761524 7.4913167307384345 -1.2254617333684958
O -4.216036381429681 -7.668257134252824 1.6195455854713625
H -3.4815282228325586 -7.303407838908589 2.13563677270583
H -3.7831572190695577 -8.241908338089923 0.9695441459109223
O 0.08335883797776944 9.908704193916655 -2.007649700080649
H 0.16808983448605375 9.942368549700323 -2.9723541762184893
H 0.48725078729556204 9.061504825543118 -1.766638356356435
O -1.1390916529119623 -5.773474569923525 8.55894306636965
H -0.4187973544462449 -6.285902597333852 8.955882604866561
H -0.9911444168120811 -4.872189451578128 8.882607545544506
O -5.223061060400008 -2.749651086540825 4.354339239379011
H -5.25952206217229 -2.6669280932249815 3.3895621362994293
H -4.4619601472062955 -3.328562213543656 4.511021246220923
O -7.762209149899575 -5.33602533763254 0.294710353856048
H -7.479464346307468 -4.875744618998436 -0.5097549300408613
H -7.764466806397391 -6.271165072238956 0.04079988922849451
O 3.444014677837883 6.259240961899884 -4.953491391233353
H 3.856823039499707 7.119534845524677 -5.122165773520215
H 2.6843721943366035 6.242214642874579 -5.554836006259093
O 7.75968574091738 0.42749348568401624 7.840416528383279
H 7.66025551619401 0.6038317881511654 6.892795406629195
H 7.180197142704921 1.0797765712967966 8.261939582397204
O 3.30684244825523 -3.445293767094752 7.3635382367545645
H 3.4189986154745844 -3.2430659092934753 8.304544211541002
H 4.160753298533502 -3.210468901908562 6.970275618689581
O -4.932178373914311 2.569991689670974 8.513452728058803
H -4.6207017534217485 1.8112067305393276 7.99751178416879
H -4.38146822495459 2.5529549651536096 9.310566287189799
O -2.6627339320190733 1.9004933070128636 6.704668871807516
H -3.2087669318461494 1.3383279158172456 6.134769413181941
H -1.9240405939067666 2.163563103410251 6.135381265450295
O 5.9226135507017545 -2.4996549456242723 -6.819915348827372
H 6.013750677956448 -3.4583648940744003 -6.92732398757918
H 6.627003787732891 -2.265923882006433 -6.1968855516464565
O -2.895750640513615 -6.6026327669846605 -3.4844215572961206
H -3.552936248025034 -5.949067224740644 -3.2017087769498245
H -2.1594143935574928 -6.06633005673486 -3.814800549814244
C 11.040006361763261 -4.656017175980676 -14.47203384425284
O 11.045439838842425 -4.995940505852814 -13.324322702703945
O 11.0345728846841 -4.316093846108537 -15.619744985801734
O -17.329768212423794 2.1492997865216275 4.181511961157334
H -17.151189157657086 1.84498277581105 3.2790331331005147
H -17.907140047792655 2.9178670121703867 4.059413117258799
O -15.405382387351116 -7.395708554972666 -7.124827012125089
H -15.968667393388657 -6.835770107973111 -6.56971774860572
H -15.127700387572283 -6.808534705046462 -7.843910818966592
O -0.3550674130887934 -6.429477230128365 -13.606788544548923
H -0.052432937039460725 -6.936217604255248 -14.375289633706313
H -1.296835857068384 -6.2813133768390665 -13.780229066926843
O -5.171378450194863 3.5847671803159487 -3.921719946371438
H -5.76170657590994 3.144573934932574 -4.55156910895608
H -5.388821760398941 4.5244783707954594 -4.014581292662956
O -8.387879863449761 -11.062136670195406 -6.111000068420058
H -7.745911943935175 -11.257372365205908 -5.4119095373671176
H -9.127956071985587 -11.6585164818729 -5.922372737201188
O 7.937264543902577 -14.623760983774943 -15.299316904124835
H 7.853887472890017 -14.551690950708764 -16.262032610480148
H 8.504427234329192 -13.876416429453933 -15.056902911098907
O -8.396807439159742 11.744278626695321 12.047346977026248
H -7.64491200527734 12.352158164427081 12.11140227355837
H -9.126554888541339 12.230339577558572 12.459870135730053
O 3.8891020817543445 9.765744768913414 8.049463683342227
H 4.215058263312482 9.60809050823905 7.150650544422206
H 3.144440891713129 9.152261719424638 8.139353640158069
O -6.801293943181528 -4.3067074696825145 11.879387313844692
H -6.434327173783679 -3.598726772115505 11.32887293716572
H -7.320318238573135 -4.840372646391248 11.259083191448525
O 3.8775075103168906 2.4347713808058455 -3.273748409283975
H 4.7429869685903 2.4443053989963284 -2.838063010511064
H 4.080637804808388 2.6247122325612566 -4.201984640312599
O -13.0533369712113 2.7516438274366557 -10.995088372219469
H -12.219248834908512 2.2789134747234194 -10.854410188400628
H -13.733333404552063 2.095285395263356 -10.781171557876025
O 9.261093097880055 -3.304612113931432 -10.343831248244877
H 8.852152267174928 -3.394904877041271 -11.217663023137613
H 9.438055085706905 -2.3551574635658574 -10.265203860754536
O 15.80535187759359 -5.807019053173242 10.43841143205434
H 15.733123523662696 -5.748913639260935 9.473852370792402
H 15.176545148363703 -5.143867759245712 10.760582819575726
O 16.502111146307975 -4.005090812448024 -13.70222099207231
H 16.979646887479596 -3.699592466785287 -12.91634712585649
H 15.575102395789298 -3.8017887103692285 -13.506555522323174
O -14.048284305158992 13.695127552189637 7.69221647038903
H -13.812359273776536 12.821840481249865 8.039601599887437
H -13.650938077092293 14.313398439105892 8.323737673305411
O -19.588279784686335 -3.98723205187473 -3.6176742701164484
H -20.353943893472504 -4.063886920999227 -3.0287346633177634
H -19.420200502908408 -3.0338669858629155 -3.6601754494566174
O -13.861558230254998 -6.255437512922457 12.142152325726697
H -13.672341262788569 -6.605573676548859 13.02565046553447
H -13.646888462547864 -6.990361437578883 11.548211537347788
O -7.452968225681852 19.343690767525292 -8.83005645134719
H -6.5772145280487795 18.956316206388177 -8.978258230573466
H -7.85585309468732 18.76430787388569 -8.166007364920398
O 15.102937255228227 -7.668142295473875 9.441437292646796
H 14.329262360204659 -8.222675511307198 9.26008838515677
H 15.556229631883038 -7.6120891433970606 8.586834455236993
O -12.896548273333623 -8.80276895561516 -19.96033315096748
H -12.953786979348521 -7.859283012830586 -19.746966416911683
H -13.286396015753715 -8.866710472882826 -20.84514508827363