194

C -5.0710522388059704 1.0783507462686561 0.47044029850746183
C -3.8153522388059704 0.1782507462686569 0.19534029850746193
C -4.11845223880597 -1.3219492537313435 0.5608402985074619
C -2.96945223880597 -2.3874492537313436 0.7034402985074619
C -2.52015223880597 0.7359507462686565 0.7384402985074618
C -2.20305223880597 0.7852507462686571 2.097440298507462
C -1.5755522388059702 1.205650746268656 -0.18965970149253808
C -0.9533522388059701 1.2695507462686564 2.508640298507462
H -2.91125223880597 0.4298507462686567 2.840840298507462
C -0.32655223880597006 1.6562507462686575 0.21554029850746192
H -1.7850522388059702 1.178550746268657 -1.2573597014925382
C 0.004447761194029898 1.6956507462686563 1.569740298507462
H -0.7158522388059702 1.2676507462686573 3.5705402985074617
H 0.3943477611940298 1.9193507462686572 -0.5551597014925382
C -1.76045223880597 -2.1592492537313435 -0.1734597014925381
C -0.5287522388059701 -1.936549253731343 0.464840298507462
C -1.8068522388059702 -2.121249253731343 -1.5681597014925381
C 0.6114477611940299 -1.614449253731343 -0.2582597014925381
H -0.4544522388059702 -1.954049253731343 1.5506402985074619
C -0.6479522388059701 -1.8270492537313432 -2.2998597014925384
H -2.74345223880597 -2.290549253731343 -2.092259701492538
C 0.5698477611940298 -1.5506492537313434 -1.6506597014925382
H 1.5072477611940298 -1.351949253731343 0.2991402985074618
H -0.7173522388059701 -1.7640492537313435 -3.3840597014925375
C 1.7791477611940298 -1.082849253731343 -2.4255597014925376
H 1.4739477611940297 -0.9102492537313429 -3.464259701492538
H 2.1252477611940295 -0.1337492537313434 -2.0010597014925384
C 1.3965477611940298 2.0964507462686566 1.997440298507462
H 1.51704776119403 1.8448507462686567 3.057640298507462
H 2.1256477611940294 1.5207507462686571 1.4165402985074618
C 3.94864776119403 -1.4275492537313434 -3.522959701492538
H 4.81734776119403 -2.087049253731343 -3.615159701492538
H 3.4305477611940303 -1.3641492537313429 -4.484459701492538
H 4.26984776119403 -0.441449253731343 -3.176459701492538
C 2.60904776119403 -3.4296492537313434 -2.8992597014925376
H 1.9825477611940296 -3.869549253731343 -2.119359701492538
H 2.06294776119403 -3.373349253731343 -3.845759701492538
H 3.5215477611940305 -4.019849253731343 -3.0234597014925377
C 3.7281477611940304 -2.060049253731343 -1.156659701492538
H 3.9048477611940298 -1.032549253731343 -0.8295597014925382
H 3.12924776119403 -2.623249253731343 -0.4404597014925382
H 4.68244776119403 -2.5769492537313434 -1.3005597014925383
C 3.1110477611940297 3.755250746268656 2.588740298507462
H 3.40124776119403 4.809350746268656 2.534540298507462
H 2.9823477611940303 3.461750746268656 3.634840298507462
H 3.86514776119403 3.1392507462686563 2.091540298507462
C 1.99744776119403 3.9574507462686572 0.40494029850746194
H 2.67914776119403 3.230350746268657 -0.04295970149253803
H 1.03214776119403 3.981150746268657 -0.10175970149253821
H 2.4399477611940297 4.958250746268657 0.368240298507462
C 0.7418477611940297 4.4992507462686575 2.475440298507462
H -0.18475223880597014 4.424250746268656 1.901240298507462
H 0.57844776119403 4.189650746268656 3.511940298507462
H 1.1210477611940297 5.524350746268658 2.4432402985074617
N 3.00114776119403 -2.025349253731343 -2.490159701492538
N 1.7831477611940298 3.586450746268657 1.862540298507462
C -3.55075223880597 -3.8435492537313434 0.6444402985074619
H -2.62515223880597 -2.2736492537313433 1.7424402985074618
H -4.67195223880597 -1.3478492537313436 1.5102402985074619
H -4.83415223880597 -1.6757492537313432 -0.1945597014925382
H -3.7169522388059697 0.17335074626865676 -0.900559701492538
H -3.9132522388059705 -4.043149253731343 -0.34225970149253815
H -4.35435223880597 -3.9354492537313432 1.3449402985074619
H -2.78115223880597 -4.545049253731343 0.8904402985074619
H -5.24235223880597 1.138950746268657 1.5249402985074618
H -5.92805223880597 0.6501507462686567 -0.006059701492538094
H -4.89895223880597 2.059650746268657 0.08004029850746197
C 1.870353428237031 -2.2337240350547445 2.885722122170114
O 1.9430710651251744 -2.666485757724 1.7458954093414742
O 1.8215844085304584 -2.9260020714444104 3.9089543378227134
O 1.834279937878372 -1.0365121856978614 3.192366664682803
O 3.3398350345001973 -2.2427907888617744 9.738100579837576
H 3.9719691473485064 -1.8206659049643568 9.137114388092646
H 3.6321738435135953 -1.9639141916954497 10.618854693422952
O 0.728176266392607 1.376730059156375 -9.083466582345583
H 0.2826022423493151 0.9702988192852393 -8.325017643223982
H 0.26262374744763184 1.0123923530271406 -9.851243133365784
O 6.283597287425632 -5.268158623783858 5.133290172402763
H 6.080345050542363 -5.851329112105342 5.879994977967071
H 6.526943554913284 -4.428598255451739 5.551480232454244
O 6.0673631394838115 2.002605944946436 -5.238075866149972
H 6.471367289076564 2.274017060158298 -4.400171330685883
H 5.24669289158286 2.516175284186606 -5.2794137700954495
O -5.471586202450201 5.293924040932979 4.57051027362367
H -5.353089354327486 5.553940344918405 5.496424619309459
H -6.192701571596643 5.861069871593972 4.258580513189303
O 5.036489983679386 -8.014904782914641 -0.18348873286120249
H 5.171632978333337 -7.610601395331763 0.6867080832011028
H 5.4277963206478494 -8.896962090920047 -0.09507945539226803
O 0.25012578043844735 1.9298062970678826 -6.146207196290651
H 0.08309312019712878 2.867410673811816 -5.967418270393857
H -0.6157569022063094 1.5111462515318925 -6.028169530828645
O -3.49987223151294 -1.86543089723322 -6.511231328561704
H -3.3800117447874656 -2.364731067170226 -5.689464840486893
H -4.329646354213802 -2.209095190729875 -6.875005575824287
O 0.7676479814860189 5.61963989693578 -7.34303448777133
H 0.4711804745028285 5.897943490886001 -6.463476937751114
H -0.026919197590723698 5.241954939097178 -7.749210576255722
O 4.730910434949593 2.2142128501763025 -8.847810240990533
H 4.608929642848457 2.1566628646717105 -9.807381000458953
H 5.683092630736573 2.0832916463105287 -8.724641053672345
O -4.32741135842716 -8.561509381333801 4.958429139515863
H -3.7192333373114783 -8.517389560724535 4.205341964640854
H -3.9505784003237245 -9.25269759852311 5.523422692050472
O 2.392624502409578 5.29783392255618 7.981250228052836
H 1.8042781436130337 4.572222535610013 7.72375453075886
H 2.758675440296938 5.6118473597659815 7.14079546042791
O 11.652919428791094 -3.0190180629977954 -4.167491276300472
H 11.227264536777652 -3.087679059982918 -3.2996946772647107
H 11.196399887504688 -2.2784133081484033 -4.594172011532474
O -2.7561567785985313 0.761854754326681 -3.7905050624430388
H -1.8938028930391486 1.0826501834709135 -3.4865257447242124
H -2.9521594599045944 0.02045222711848127 -3.1981646317191794
O -1.5870370008987589 6.118022689320394 5.253031196117491
H -1.7843759640898198 5.797239378791337 6.145848511245674
H -1.670662050132531 7.080618169493794 5.3263710692452175
O -0.17929611828155123 0.7640255233499501 9.548331235611283
H 0.341265771613557 1.2159950341431394 8.86737144457939
H -0.06248093313890285 -0.1764859837059834 9.34645438722231
O -7.502747522819097 -5.508249940785083 4.448547367622846
H -7.397680644183362 -6.464666015582049 4.563423822058517
H -8.078064590149188 -5.246110299995596 5.182887224273337
O -7.680475125479059 -0.38813846167550325 -4.122476019511017
H -8.374258925203824 0.1769272632150134 -3.750545753609704
H -7.118260218322375 0.22657168077471068 -4.617458628538482
O 2.4339796864390344 3.1065757143862105 -6.771553369311387
H 2.868639607966287 3.0078518904225247 -5.911151302775102
H 1.9909562512609702 3.9663592692596508 -6.71269405439679
O 7.812337208296361 -3.235187761700735 2.3504408750390717
H 7.530452060282164 -3.087395012598697 1.435200238079656
H 8.72061566714197 -2.8983087018610254 2.3729060600718572
C -3.871325494295152 12.82580697077119 7.315156489490676
O -3.0227278160911863 12.020055393774996 7.063234608712162
O -4.7199231724991195 13.631558547767384 7.56707837026919
O 1.8330343096648465 15.469592984711534 -0.5879027047619316
H 1.1469482242664482 15.940841765814659 -0.0917395998946704
H 2.6053762450234164 15.49731796352298 -0.0033676718199511235
O -10.359605352615304 6.002206459739526 -4.136158366895128
H -9.77370970495333 6.397266912139484 -3.473119238411524
H -10.37099255208965 5.060715121118768 -3.90719038815088
O -16.194960336681984 -6.046585137577447 -1.8970712560776535
H -16.456873602180593 -5.708376729297222 -2.766544585642404
H -15.337660642062172 -5.626532617876907 -1.7310740916500444
O -4.198924374169994 -1.5161382144163795 12.034698604373045
H -3.823904230482958 -1.098904452579471 11.244607953426982
H -3.6338157910717963 -1.2014046596611063 12.75619498213239
O -10.539374175190076 -3.796971072474604 -0.6239931784659198
H -11.497531764162112 -3.866238103751835 -0.4970937301876166
H -10.269007893290954 -3.1109017219075876 0.004634584303586653
O 11.26220811949355 14.529820711611723 -5.861332884103831
H 10.359157103929833 14.416385556288684 -5.528769077104063
H 11.16253146804932 14.498445325680521 -6.824682298706099
O 14.645286091622395 -7.052700278107105 7.371871691212308
H 14.584929640744134 -7.276637043048134 6.431033351727184
H 15.482162959374268 -7.451355076441554 7.654136468127062
O 7.6981925033581575 5.363625949613317 11.203281082069337
H 7.519798335351496 4.414175684403728 11.127868406645012
H 8.181413617695387 5.576250360983685 10.390723294187092
O 3.6215786123366023 10.794346419277996 -12.96413405844232
H 3.2352742883388235 11.033544774191686 -12.108259959542721
H 4.576021500159531 10.885512070432608 -12.823814629161177
O -0.45636424259123975 5.65408964592435 11.324089077592346
H -0.1968563064509552 5.936402439343526 10.43418881652256
H -0.8251439518035766 6.45520542493642 11.725557605613098
O 10.077814512853855 9.530419705541956 -0.953285387860122
H 10.956027930766874 9.367676779645846 -0.5774885151106155
H 10.262518268742275 9.861995789995234 -1.8448591464910844
O 12.27259725589247 0.6601218433588203 -10.498708518823907
H 12.460791868587265 1.4193541958938116 -9.926767630692243
H 12.674021864169609 -0.0888791089141181 -10.033071533970068
O 5.4489114529929035 21.04429031262228 1.485714429320979
H 5.955567505984907 21.521805546986467 2.159692323481226
H 4.618669674875979 21.539895967954486 1.422188304207138
O -2.9936337756134304 -10.02316554551654 14.192084674728177
H -2.23451945218085 -9.53283587660481 13.842385351531217
H -3.6688579770330794 -9.341983339723248 14.33001590624513
O -7.556723886358741 3.1384038826016294 20.863753656960135
H -6.866045334770416 3.0452580208662514 21.536995325098275
H -7.134842658915767 2.8230032739767843 20.05042676676758
O 16.699140836169356 -6.843292669210594 3.408841288075368
H 16.66437684067374 -7.796332070128004 3.2371592511111986
H 17.628590424507813 -6.612584063842696 3.2609935743741625
O -12.166477881156815 12.83057832733045 4.814858312578324
H -11.857619658779576 13.372526522822792 5.556387886346332
H -11.536910580802537 12.094578055299653 4.784682855743076
O 3.055732182149277 5.337920546892421 -5.186474385297979
H 3.155041527265807 5.5825282007812085 -4.25412675349343
H 2.116486415552384 5.4902997018123845 -5.369668073441675
O 11.404851556924546 2.215136998688021 -13.653065853189783
H 11.213968282511008 1.2748380104308297 -13.788597196913916
H 10.592984910332802 2.6619648199083645 -13.93622550892372
O 20.47751537486016 9.555431730234279 10.195512084793755
H 20.506552550888816 10.1858740209919 10.930812511376367
H 20.283599380934643 8.707208830127803 10.621981829716933