194

C -5.0710522388059704 1.0783507462686561 0.47044029850746183
C -3.8153522388059704 0.1782507462686569 0.19534029850746193
C -4.11845223880597 -1.3219492537313435 0.5608402985074619
C -2.96945223880597 -2.3874492537313436 0.7034402985074619
C -2.52015223880597 0.7359507462686565 0.7384402985074618
C -2.20305223880597 0.7852507462686571 2.097440298507462
C -1.5755522388059702 1.205650746268656 -0.18965970149253808
C -0.9533522388059701 1.2695507462686564 2.508640298507462
H -2.91125223880597 0.4298507462686567 2.840840298507462
C -0.32655223880597006 1.6562507462686575 0.21554029850746192
H -1.7850522388059702 1.178550746268657 -1.2573597014925382
C 0.004447761194029898 1.6956507462686563 1.569740298507462
H -0.7158522388059702 1.2676507462686573 3.5705402985074617
H 0.3943477611940298 1.9193507462686572 -0.5551597014925382
C -1.76045223880597 -2.1592492537313435 -0.1734597014925381
C -0.5287522388059701 -1.936549253731343 0.464840298507462
C -1.8068522388059702 -2.121249253731343 -1.5681597014925381
C 0.6114477611940299 -1.614449253731343 -0.2582597014925381
H -0.4544522388059702 -1.954049253731343 1.5506402985074619
C -0.6479522388059701 -1.8270492537313432 -2.2998597014925384
H -2.74345223880597 -2.290549253731343 -2.092259701492538
C 0.5698477611940298 -1.5506492537313434 -1.6506597014925382
H 1.5072477611940298 -1.351949253731343 0.2991402985074618
H -0.7173522388059701 -1.7640492537313435 -3.3840597014925375
C 1.7791477611940298 -1.082849253731343 -2.4255597014925376
H 1.4739477611940297 -0.9102492537313429 -3.464259701492538
H 2.1252477611940295 -0.1337492537313434 -2.0010597014925384
C 1.3965477611940298 2.0964507462686566 1.997440298507462
H 1.51704776119403 1.8448507462686567 3.057640298507462
H 2.1256477611940294 1.5207507462686571 1.4165402985074618
C 3.94864776119403 -1.4275492537313434 -3.522959701492538
H 4.81734776119403 -2.087049253731343 -3.615159701492538
H 3.4305477611940303 -1.3641492537313429 -4.484459701492538
H 4.26984776119403 -0.441449253731343 -3.176459701492538
C 2.60904776119403 -3.4296492537313434 -2.8992597014925376
H 1.9825477611940296 -3.869549253731343 -2.119359701492538
H 2.06294776119403 -3.373349253731343 -3.845759701492538
H 3.5215477611940305 -4.019849253731343 -3.0234597014925377
C 3.7281477611940304 -2.060049253731343 -1.156659701492538
H 3.9048477611940298 -1.032549253731343 -0.8295597014925382
H 3.12924776119403 -2.623249253731343 -0.4404597014925382
H 4.68244776119403 -2.5769492537313434 -1.3005597014925383
C 3.1110477611940297 3.755250746268656 2.588740298507462
H 3.40124776119403 4.809350746268656 2.534540298507462
H 2.9823477611940303 3.461750746268656 3.634840298507462
H 3.86514776119403 3.1392507462686563 2.091540298507462
C 1.99744776119403 3.9574507462686572 0.40494029850746194
H 2.67914776119403 3.230350746268657 -0.04295970149253803
H 1.03214776119403 3.981150746268657 -0.10175970149253821
H 2.4399477611940297 4.958250746268657 0.368240298507462
C 0.7418477611940297 4.4992507462686575 2.475440298507462
H -0.18475223880597014 4.424250746268656 1.901240298507462
H 0.57844776119403 4.189650746268656 3.511940298507462
H 1.1210477611940297 5.524350746268658 2.4432402985074617
N 3.00114776119403 -2.025349253731343 -2.490159701492538
N 1.7831477611940298 3.586450746268657 1.862540298507462
C -3.55075223880597 -3.8435492537313434 0.6444402985074619
H -2.62515223880597 -2.2736492537313433 1.7424402985074618
H -4.67195223880597 -1.3478492537313436 1.5102402985074619
H -4.83415223880597 -1.6757492537313432 -0.1945597014925382
H -3.7169522388059697 0.17335074626865676 -0.900559701492538
H -3.9132522388059705 -4.043149253731343 -0.34225970149253815
H -4.35435223880597 -3.9354492537313432 1.3449402985074619
H -2.78115223880597 -4.545049253731343 0.8904402985074619
H -5.24235223880597 1.138950746268657 1.5249402985074618
H -5.92805223880597 0.6501507462686567 -0.006059701492538094
H -4.89895223880597 2.059650746268657 0.08004029850746197
C 0.9016629750531213 -1.3410105924769853 3.7517471460593033
O 0.9766892633938149 -0.30329250302091826 3.111991160176038
O 1.2633605472027005 -2.4531410282836963 3.3505337064121816
O 0.45242351568891004 -1.439620582671086 4.899400561679224
O -0.5979592671541563 -4.091006541020491 7.850438735900676
H -0.5716775810963857 -4.036847280018039 6.883307201761896
H -0.29275129469391437 -4.990326093861163 8.042881921607941
O 7.603864346382942 0.5781113600501135 -1.9645760544788766
H 7.136796938084805 -0.2502426404068254 -1.778444265327616
H 6.895056375498516 1.2343967493416415 -2.0410135617195615
O 1.8822831019285866 8.632568718874069 -7.847473422791703
H 1.3200987086470413 8.507514667373693 -7.068193274799979
H 2.7475826628307276 8.297728922984676 -7.568007995070651
O 8.266363094802198 -6.765441974999972 0.909989496887275
H 8.926701140432655 -6.928184272064173 1.600232908401807
H 7.8560202681631885 -5.927484720423353 1.1715393935194902
O 1.1981379046901472 8.60654285750972 -2.2485396193613263
H 1.3039636947732922 8.320555276700347 -3.168310983710142
H 2.079837761311164 8.48931764417216 -1.8640587271281215
O -5.246842297597041 -1.6599056012895312 6.655256377400649
H -5.176605374112163 -1.6524438006072144 5.688830770843187
H -6.18195144937324 -1.4695256893258375 6.82344766042416
O 9.258009777105633 4.6750249064052944 1.8167944044803637
H 10.142038742538062 4.288727501466916 1.9075383305269242
H 9.155650394281905 4.803570769337287 0.8618281945174067
O 5.439973780443635 10.271532760956546 0.32442486340176235
H 5.955881405248197 10.427081894520605 -0.4809391205309609
H 5.386205904502805 11.145091148219159 0.7403175224617119
O 6.913738297739792 -0.924955007991474 -5.016112618373118
H 7.308587635912351 -1.6971752713959936 -5.448243642290803
H 7.380732458518887 -0.8664638696601568 -4.169084174438124
O -9.610077806708313 6.156201214737669 2.4607822542135986
H -9.167165131353588 5.815812714318576 1.6689922645745767
H -9.390849170156985 5.50918997618008 3.1480065308482477
O -4.506824606188193 6.039029209027308 -0.23351587715349487
H -5.0669983011904325 5.550340572166773 0.388059705162068
H -3.7903642095928913 5.419961236043611 -0.4394316104920617
O 1.8482500383056064 5.757859306234327 -5.969900012185453
H 1.4932617192645528 5.685297774504954 -6.8686132447337975
H 1.4364798089244837 5.020168207900615 -5.495327503568888
O -2.1243269800786146 -10.045872045787705 4.864522025648116
H -2.08485307013999 -10.901758807788394 4.41189964665417
H -1.258546538907496 -9.64786924790839 4.6885108189998554
O 3.1588102560145437 9.226574995209514 6.940010790643606
H 3.148604540809181 9.150927774900838 5.974018710791644
H 3.0059605758102164 8.320414881874646 7.247375018494495
O -3.0219014244363285 8.044670048485616 0.7249692466805556
H -2.916296480629514 7.293635947542699 0.1218417875440776
H -3.7572031353176367 8.548490389597223 0.3448924095052257
O 5.644725793293537 2.8184217966515974 -5.04541449681427
H 6.015655509789192 2.917755804760998 -4.155745312705156
H 5.287306903906395 3.695720635265812 -5.249278249294722
O 5.205441948845927 -7.171852652995269 -3.667276254147065
H 4.477080964857915 -7.32156978080396 -4.288599371007153
H 5.495342641172372 -6.267541193280577 -3.859994485555841
O -0.9672485533366344 3.4062942732985184 -10.875883153859567
H -1.7746447069407836 3.7855641014575094 -11.254344784006504
H -1.2913778797963231 2.7972517238163945 -10.195464681925493
O 2.8853571379005407 -3.798606524420458 -7.490248826043175
H 2.716600711441545 -4.595353149402909 -8.015304481195905
H 2.0805987722986696 -3.270384186395849 -7.601186100687994
O -4.549843410681512 9.742600190592885 -3.0992770040524955
H -5.2940340901363685 9.748649172102681 -3.7198501257192444
H -4.873655284636829 9.2195599519459 -2.350586999216283
C 12.861021659911632 -5.783206250695633 -9.85640133746586
O 13.403460664168533 -5.57799590987006 -8.80927818330536
O 12.318582655654735 -5.988416591521206 -10.903524491626362
O -3.8925950642249343 -9.388398760261156 -9.693876617102653
H -4.322841890592135 -8.55051209537298 -9.921474864247752
H -4.592301423283957 -9.901049574706512 -9.261948269062287
O 8.979196255872115 -5.970749156224722 -16.42771562315604
H 8.671567218364872 -5.9500282279405665 -17.3463572155703
H 9.20340341727505 -5.047933201752103 -16.23509213744771
O -3.2135533195747534 17.997415308255466 6.853220320968303
H -3.5645772952722723 18.40111013424991 6.045272294885669
H -2.643609568034874 17.2836577825378 6.529683215117915
O -10.072899788516207 11.065122687119317 2.884899984312348
H -9.715156508839568 11.767877932264417 3.448035996450849
H -10.68847386313343 10.591474719414284 3.4642859572596065
O -14.032378979248495 -13.9041367700633 4.62393184192449
H -14.705656863090553 -14.227774520051682 4.006742361447373
H -13.196766365182455 -14.209738822253758 4.240107807749062
O 5.126795429854958 -2.7356627002473997 1.8477255462336768
H 6.033696614943724 -3.0740939834866623 1.8920184791871189
H 4.968863152249211 -2.3729478976081424 2.7322917178322896
O -2.353031448924119 5.239618828155469 3.1093733054519554
H -2.4488251736690523 6.18633584181897 2.926294592217577
H -3.155005354031915 4.846268543952286 2.733773313780728
O -11.450781321518857 -11.501126573656494 3.0536621970128035
H -10.758004223607736 -11.530284086878998 3.7305499934255675
H -12.274924670851163 -11.564607267029626 3.5593497345497602
O 4.948777967517273 -5.445790287985815 -9.446620714174607
H 5.6003152339661675 -4.9974376991837035 -10.006483646902565
H 4.899067485331608 -6.340347973277142 -9.815751260116139
O 8.201763722068943 2.5364758968038528 -5.838820088191165
H 7.8379190213975996 1.863582476245221 -6.433630003426517
H 8.76416861525211 2.0326188507767475 -5.2315386397733254
O 0.28601848270943364 6.320604374155018 -11.481260322351615
H 0.5026805956974285 6.686310745641552 -10.610465435165352
H 0.9756137937695697 6.675347800246216 -12.062274395252564
O 2.2079267606731228 -12.367834043572755 9.552842786667789
H 2.004627490359904 -12.051899712806385 8.659633817706256
H 1.3576388042822303 -12.324664546483115 10.015561632229135
O 3.644056195523932 13.702282300819345 -13.527132697255581
H 3.572718783527664 12.737290862278817 -13.475462066398626
H 4.030149353804932 13.861956803387457 -14.401431313666603
O -2.798967063850383 1.2226574743874257 -9.234121338408423
H -2.3614079919695774 0.37635505305334394 -9.410987466196868
H -2.3278881406905496 1.5731093130695504 -8.463258120179088
O 2.3865574794308957 4.376817118181186 8.898696540955482
H 1.449772421200596 4.154567125964682 8.789124407015231
H 2.801344609368097 3.5331696776224715 9.133584976552445
O -4.662962482700554 5.911530497040003 14.79304226826937
H -4.3295135392445685 6.18523729525478 15.660719482225748
H -3.8620589683812847 5.6971391891628365 14.291492796972909
O 14.831693204203727 0.24454654771700846 4.076161409016378
H 14.559782162116518 0.5936251361671768 3.214084915208152
H 14.16798276896516 0.5935107965633764 4.68989942762246
O 7.1372460296597655 10.90054698101983 7.060988087843173
H 7.323616642900507 10.439535542499364 7.892674209510213
H 7.310464098281802 10.233558278729204 6.379751333095222
O -12.746333618948185 13.907014724226977 -9.998034084321263
H -12.810011246744171 14.026296880480007 -9.038511138364312
H -13.034884141291256 14.758546879285479 -10.359411351532362
O -15.080390919714063 2.7018780467576975 12.708299501206506
H -15.158893369520786 3.6558944527722517 12.557775684720822
H -14.162878838669114 2.501922600493419 12.469236026485206