194

C -5.0710522388059704 1.0783507462686561 0.47044029850746183
C -3.8153522388059704 0.1782507462686569 0.19534029850746193
C -4.11845223880597 -1.3219492537313435 0.5608402985074619
C -2.96945223880597 -2.3874492537313436 0.7034402985074619
C -2.52015223880597 0.7359507462686565 0.7384402985074618
C -2.20305223880597 0.7852507462686571 2.097440298507462
C -1.5755522388059702 1.205650746268656 -0.18965970149253808
C -0.9533522388059701 1.2695507462686564 2.508640298507462
H -2.91125223880597 0.4298507462686567 2.840840298507462
C -0.32655223880597006 1.6562507462686575 0.21554029850746192
H -1.7850522388059702 1.178550746268657 -1.2573597014925382
C 0.004447761194029898 1.6956507462686563 1.569740298507462
H -0.7158522388059702 1.2676507462686573 3.5705402985074617
H 0.3943477611940298 1.9193507462686572 -0.5551597014925382
C -1.76045223880597 -2.1592492537313435 -0.1734597014925381
C -0.5287522388059701 -1.936549253731343 0.464840298507462
C -1.8068522388059702 -2.121249253731343 -1.5681597014925381
C 0.6114477611940299 -1.614449253731343 -0.2582597014925381
H -0.4544522388059702 -1.954049253731343 1.5506402985074619
C -0.6479522388059701 -1.8270492537313432 -2.2998597014925384
H -2.74345223880597 -2.290549253731343 -2.092259701492538
C 0.5698477611940298 -1.5506492537313434 -1.6506597014925382
H 1.5072477611940298 -1.351949253731343 0.2991402985074618
H -0.7173522388059701 -1.7640492537313435 -3.3840597014925375
C 1.7791477611940298 -1.082849253731343 -2.4255597014925376
H 1.4739477611940297 -0.9102492537313429 -3.464259701492538
H 2.1252477611940295 -0.1337492537313434 -2.0010597014925384
C 1.3965477611940298 2.0964507462686566 1.997440298507462
H 1.51704776119403 1.8448507462686567 3.057640298507462
H 2.1256477611940294 1.5207507462686571 1.4165402985074618
C 3.94864776119403 -1.4275492537313434 -3.522959701492538
H 4.81734776119403 -2.087049253731343 -3.615159701492538
H 3.4305477611940303 -1.3641492537313429 -4.484459701492538
H 4.26984776119403 -0.441449253731343 -3.176459701492538
C 2.60904776119403 -3.4296492537313434 -2.8992597014925376
H 1.9825477611940296 -3.869549253731343 -2.119359701492538
H 2.06294776119403 -3.373349253731343 -3.845759701492538
H 3.5215477611940305 -4.019849253731343 -3.0234597014925377
C 3.7281477611940304 -2.060049253731343 -1.156659701492538
H 3.9048477611940298 -1.032549253731343 -0.8295597014925382
H 3.12924776119403 -2.623249253731343 -0.4404597014925382
H 4.68244776119403 -2.5769492537313434 -1.3005597014925383
C 3.1110477611940297 3.755250746268656 2.588740298507462
H 3.40124776119403 4.809350746268656 2.534540298507462
H 2.9823477611940303 3.461750746268656 3.634840298507462
H 3.86514776119403 3.1392507462686563 2.091540298507462
C 1.99744776119403 3.9574507462686572 0.40494029850746194
H 2.67914776119403 3.230350746268657 -0.04295970149253803
H 1.03214776119403 3.981150746268657 -0.10175970149253821
H 2.4399477611940297 4.958250746268657 0.368240298507462
C 0.7418477611940297 4.4992507462686575 2.475440298507462
H -0.18475223880597014 4.424250746268656 1.901240298507462
H 0.57844776119403 4.189650746268656 3.511940298507462
H 1.1210477611940297 5.524350746268658 2.4432402985074617
N 3.00114776119403 -2.025349253731343 -2.490159701492538
N 1.7831477611940298 3.586450746268657 1.862540298507462
C -3.55075223880597 -3.8435492537313434 0.6444402985074619
H -2.62515223880597 -2.2736492537313433 1.7424402985074618
H -4.67195223880597 -1.3478492537313436 1.5102402985074619
H -4.83415223880597 -1.6757492537313432 -0.1945597014925382
H -3.7169522388059697 0.17335074626865676 -0.900559701492538
H -3.9132522388059705 -4.043149253731343 -0.34225970149253815
H -4.35435223880597 -3.9354492537313432 1.3449402985074619
H -2.78115223880597 -4.545049253731343 0.8904402985074619
H -5.24235223880597 1.138950746268657 1.5249402985074618
H -5.92805223880597 0.6501507462686567 -0.006059701492538094
H -4.89895223880597 2.059650746268657 0.08004029850746197
C 2.287345840506275 2.497561328187593 -2.609272618095265
O 2.2918461605810876 3.712711348228559 -2.732421611244475
O 1.340156128910768 1.7559615534311868 -2.8947422109223626
O 3.2292981055552814 1.8213970350697148 -2.1801151138133905
O 5.917545352746221 3.5120508621711446 -5.2841808469265725
H 5.41807431255306 3.6176655296214393 -6.107795792716003
H 5.869585328713607 4.385664751547929 -4.867694889560951
O -7.654699591769196 -0.057742096744946014 -3.189314162429979
H -7.69360213487686 0.1301904677318757 -4.139122195797207
H -6.754946254006713 0.19837013656242908 -2.936702999898355
O 6.398185528324392 -5.65207447651688 0.8057382993407693
H 6.24406074009229 -5.6308322190996725 1.7621700392219968
H 5.64928791766489 -6.1600393747215945 0.45920406547582987
O -0.2435904010178387 0.6219020292814381 7.213164335607873
H 0.4090742407318153 1.2520975245691979 7.553531578492396
H -1.030194018604719 1.1641157767341894 7.051235508117288
O -7.861334184802982 -1.0318533564074395 5.484119646977368
H -8.741428375297684 -1.4370669009200536 5.469852338156091
H -7.437968043651837 -1.3632773339294313 4.677967550936993
O 2.440944111093672 -0.4669389194560072 7.894713719233828
H 2.268963678479678 -0.37736788489326517 6.945310160432164
H 2.774531352354481 0.4046801800557845 8.155408257216992
O 8.527683697641745 2.357460755607299 -5.082417504369792
H 8.939870053581561 1.9277451509700168 -4.317947580822586
H 8.049767681328305 1.6399023030142423 -5.524761366951097
O 7.774195269827231 2.8387645551720673 3.125425068190311
H 7.096213538759306 2.580581374306327 2.483047006332507
H 8.133562294042896 1.9950165309385863 3.438325304381456
O -4.858944979049818 -5.929272474007931 0.2227549539655772
H -5.30929427156147 -6.646712689260455 0.6933210058357365
H -3.9966623710337754 -6.306064210885949 -0.008456281128002452
O -3.1053085498094557 6.50214245317793 10.001056301496657
H -3.888118002095046 7.073250383799823 9.99752786088997
H -2.890405907291612 6.393779267534392 9.062421005688947
O 1.7641451069655711 1.0932344443195747 10.09605048065664
H 2.12238595691563 0.6147829915677505 10.858752950619028
H 1.1569190545974806 1.7383395768578582 10.488577974723267
O -4.985924887153109 -1.7552862963671054 -9.673553010869252
H -4.17554569104554 -1.2881781968158919 -9.420446434997137
H -5.002227939462314 -2.528728860972145 -9.09004401004529
O 5.69298252835301 1.7174644080464676 -1.818011025527278
H 5.23508714567957 0.8741367579758635 -1.6834835188502508
H 5.120925524805908 2.36660211376422 -1.3817393578611292
O 5.650091810893737 2.3223259996550962 6.462541499269097
H 5.3135470487367265 2.7221313569923695 7.278544352333409
H 4.96486019831795 2.5182280436516815 5.8060036324367665
O 7.355082700356116 5.358571432458016 0.4690865138523659
H 7.944366190873464 4.590056009382114 0.43597504758823824
H 7.9591930856795265 6.115498282648489 0.5018634890808418
O 5.972717496906231 0.951803141888351 8.587728917737957
H 6.072871910611923 0.14022686345005375 8.067843935658734
H 6.615780725157372 0.8508106126938554 9.305525642318194
O 3.886511389987265 5.906864113988966 -2.9881260076642873
H 3.348867555384583 6.361305214423579 -3.654001183841852
H 3.470122926310169 6.1477034923255145 -2.146948864929719
O 1.5151609967403221 5.977562510993734 7.0080709469699
H 2.184491510235031 5.885282375563353 6.313485892991727
H 0.6735921263806146 5.903817371847838 6.533428518194473
O 10.499491383968241 -4.434787587641567 -0.20188581043433373
H 9.82631035274063 -4.868462661686701 0.3437519689095101
H 10.192672034002888 -4.577881562824398 -1.1098219012762014
O -2.346031974624344 -1.939747881538488 -7.116838971534454
H -1.7484033393870273 -1.8374595510065481 -6.360965656301424
H -2.067782444256638 -1.2438532940212934 -7.73106194913658
C 5.703713651559719 9.595221919345846 -11.593074091866931
O 6.853343116512531 9.399907076939478 -11.322847403791743
O 4.554084186606906 9.790536761752211 -11.863300779942122
O 5.529113810304595 0.10082173765649782 11.68464720334163
H 5.50809886224724 0.08682542880986477 12.653321468611857
H 4.800476710057706 -0.48337566341398674 11.426261218763718
O 11.968297710493951 -4.916187269511914 -8.576540724211132
H 11.684708241000271 -4.774304747676741 -7.660891381018016
H 12.216082799654941 -4.031497257432923 -8.88457980682429
O 0.024666576566647613 13.091819984844577 2.092355736421457
H -0.11703564277344558 13.699905602878317 1.351329610650835
H -0.849094841633355 12.701899089839104 2.2455374063537668
O -7.086872928799245 7.958633739285901 -3.154004741847568
H -6.432614434520842 8.658278613033884 -3.3003270921660537
H -6.738568635010956 7.204432218232449 -3.6528294894987843
O 15.204050892734497 12.454612841844712 -2.2076428366489322
H 15.852269346398563 12.355132378584758 -2.9210037766077654
H 15.39401725295566 11.712952302181593 -1.6136610438379613
O 12.77268586172672 -16.34475040197692 -3.405003425064271
H 13.161290867790825 -16.674449479905334 -4.229170898442756
H 11.84426873776716 -16.61700885282707 -3.4586590322208295
O -13.168431668525882 15.452345909843494 2.1748666067643843
H -13.419420036399965 16.112553385320666 2.838265646118499
H -13.713999604971903 15.674514566615759 1.4054781099891613
O 6.685061934106164 13.738259622737274 13.164112615696604
H 6.744015488788955 13.603907834893011 14.121944246200274
H 7.378360841365005 13.16486669624295 12.80422496469984
O 1.2673260121616434 -15.376027903189703 2.35303821669091
H 1.4739468294807416 -14.911280972676286 1.5282440088252465
H 2.135308218767749 -15.552615295453394 2.745957707437686
O 7.76469169345004 -12.056716975208344 -12.910144725577972
H 7.450791333443282 -12.14169332922214 -11.997339740848947
H 8.314132072599262 -12.843764185308567 -13.042937432959866
O 3.5632832582580916 12.070235129552827 10.355761415207681
H 3.740867525015359 12.036641845295636 11.30776072001473
H 2.7257180418667817 11.593079511235539 10.256923322856474
O -6.570593924482464 11.443562758686259 11.201337644118261
H -6.692105572521335 12.318321359108381 10.80259002057875
H -6.912533928406236 11.547363050564558 12.102039857628693
O -12.0934132094747 17.462191629853553 -5.343277886948519
H -12.918328393134871 17.36569672880364 -4.844107544541963
H -11.691318275519013 16.581458124204985 -5.303401823763322
O -13.064318798569392 6.023431443050608 -12.195611483789026
H -12.424220858657288 6.681197500303343 -11.884828926127765
H -13.754673932094732 6.552346286269907 -12.622953059741457
O -2.838255626868442 14.711932650972381 11.042592124124669
H -2.0692639909983885 14.140695147169485 10.896623171566466
H -2.55474292448939 15.309721160033092 11.750569094318404
O -0.16853317127327117 -0.38577223763203494 -15.044217311007934
H -0.1536115251307857 -1.3073677040800675 -14.745208117840178
H -1.1100349953799284 -0.1566247130625943 -15.049477680532119
O 18.54087642544282 3.642687948964656 4.032007444549688
H 18.017006851875728 3.8076123841513554 3.2336792178979064
H 19.38824946645462 3.3172966310700227 3.6928299631255728
O 0.11956380247783338 -5.517447787825388 8.578928015146698
H 0.9738651196521124 -5.911044313424003 8.346079585023169
H -0.02541647255553281 -4.849531494457366 7.892028830982988
O -13.493852633610567 -12.883735373908024 11.180795532257827
H -13.674990154805673 -12.951278112461793 12.13031885149962
H -14.367805080995854 -12.962004209797026 10.769647075690315
O 7.815519468504148 -2.0813314135448158 12.88416546777744
H 8.316722937251866 -2.2994723821636973 12.084054876905608
H 8.12355705007694 -1.192952847212433 13.118383988650589