194

C -5.0710522388059704 1.0783507462686561 0.47044029850746183
C -3.8153522388059704 0.1782507462686569 0.19534029850746193
C -4.11845223880597 -1.3219492537313435 0.5608402985074619
C -2.96945223880597 -2.3874492537313436 0.7034402985074619
C -2.52015223880597 0.7359507462686565 0.7384402985074618
C -2.20305223880597 0.7852507462686571 2.097440298507462
C -1.5755522388059702 1.205650746268656 -0.18965970149253808
C -0.9533522388059701 1.2695507462686564 2.508640298507462
H -2.91125223880597 0.4298507462686567 2.840840298507462
C -0.32655223880597006 1.6562507462686575 0.21554029850746192
H -1.7850522388059702 1.178550746268657 -1.2573597014925382
C 0.004447761194029898 1.6956507462686563 1.569740298507462
H -0.7158522388059702 1.2676507462686573 3.5705402985074617
H 0.3943477611940298 1.9193507462686572 -0.5551597014925382
C -1.76045223880597 -2.1592492537313435 -0.1734597014925381
C -0.5287522388059701 -1.936549253731343 0.464840298507462
C -1.8068522388059702 -2.121249253731343 -1.5681597014925381
C 0.6114477611940299 -1.614449253731343 -0.2582597014925381
H -0.4544522388059702 -1.954049253731343 1.5506402985074619
C -0.6479522388059701 -1.8270492537313432 -2.2998597014925384
H -2.74345223880597 -2.290549253731343 -2.092259701492538
C 0.5698477611940298 -1.5506492537313434 -1.6506597014925382
H 1.5072477611940298 -1.351949253731343 0.2991402985074618
H -0.7173522388059701 -1.7640492537313435 -3.3840597014925375
C 1.7791477611940298 -1.082849253731343 -2.4255597014925376
H 1.4739477611940297 -0.9102492537313429 -3.464259701492538
H 2.1252477611940295 -0.1337492537313434 -2.0010597014925384
C 1.3965477611940298 2.0964507462686566 1.997440298507462
H 1.51704776119403 1.8448507462686567 3.057640298507462
H 2.1256477611940294 1.5207507462686571 1.4165402985074618
C 3.94864776119403 -1.4275492537313434 -3.522959701492538
H 4.81734776119403 -2.087049253731343 -3.615159701492538
H 3.4305477611940303 -1.3641492537313429 -4.484459701492538
H 4.26984776119403 -0.441449253731343 -3.176459701492538
C 2.60904776119403 -3.4296492537313434 -2.8992597014925376
H 1.9825477611940296 -3.869549253731343 -2.119359701492538
H 2.06294776119403 -3.373349253731343 -3.845759701492538
H 3.5215477611940305 -4.019849253731343 -3.0234597014925377
C 3.7281477611940304 -2.060049253731343 -1.156659701492538
H 3.9048477611940298 -1.032549253731343 -0.8295597014925382
H 3.12924776119403 -2.623249253731343 -0.4404597014925382
H 4.68244776119403 -2.5769492537313434 -1.3005597014925383
C 3.1110477611940297 3.755250746268656 2.588740298507462
H 3.40124776119403 4.809350746268656 2.534540298507462
H 2.9823477611940303 3.461750746268656 3.634840298507462
H 3.86514776119403 3.1392507462686563 2.091540298507462
C 1.99744776119403 3.9574507462686572 0.40494029850746194
H 2.67914776119403 3.230350746268657 -0.04295970149253803
H 1.03214776119403 3.981150746268657 -0.10175970149253821
H 2.4399477611940297 4.958250746268657 0.368240298507462
C 0.7418477611940297 4.4992507462686575 2.475440298507462
H -0.18475223880597014 4.424250746268656 1.901240298507462
H 0.57844776119403 4.189650746268656 3.511940298507462
H 1.1210477611940297 5.524350746268658 2.4432402985074617
N 3.00114776119403 -2.025349253731343 -2.490159701492538
N 1.7831477611940298 3.586450746268657 1.862540298507462
C -3.55075223880597 -3.8435492537313434 0.6444402985074619
H -2.62515223880597 -2.2736492537313433 1.7424402985074618
H -4.67195223880597 -1.3478492537313436 1.5102402985074619
H -4.83415223880597 -1.6757492537313432 -0.1945597014925382
H -3.7169522388059697 0.17335074626865676 -0.900559701492538
H -3.9132522388059705 -4.043149253731343 -0.34225970149253815
H -4.35435223880597 -3.9354492537313432 1.3449402985074619
H -2.78115223880597 -4.545049253731343 0.8904402985074619
H -5.24235223880597 1.138950746268657 1.5249402985074618
H -5.92805223880597 0.6501507462686567 -0.006059701492538094
H -4.89895223880597 2.059650746268657 0.08004029850746197
C 1.038113246850875 -0.7064801409446739 3.55770486055895
O 1.836387730914438 -0.08869262221532015 4.245361699683873
O 1.196112171977985 -0.9918709827937089 2.365136258277565
O -0.05127346219661477 -1.1418879612108692 3.947967608719366
O -2.1219734863003277 -4.126421998860478 -5.928450176401068
H -2.018813057851573 -4.084317542483479 -4.9658742065911685
H -1.2140309085091008 -4.203936768691064 -6.257985728643816
O 3.6232102912932076 -8.458262865535778 -2.9597986360353277
H 3.835162542418031 -8.423302202410682 -3.904690879720806
H 2.9619439313307105 -7.759784221568118 -2.842255752783946
O -8.00362447774389 0.7783628546359709 2.951078554657532
H -7.604972022191029 0.6667760582933759 2.0749552965119262
H -8.69081685451449 0.09598960064989748 2.984174231910459
O -5.153601017172457 5.550215938605585 -10.360840268721386
H -5.50817978817515 6.4517427394104185 -10.382991555023121
H -5.050390902706164 5.362452748958199 -9.415824606848371
O 6.086109583375784 -1.9078627193855184 6.990327231236373
H 6.852271935447305 -1.5308993640360478 6.5322210908148515
H 6.074963875021583 -2.8337905801816676 6.704853389901043
O -0.38660041797050215 0.37490719087774704 -4.587471656409912
H -0.7022457746257675 0.4150508667657886 -3.672199100824327
H -0.46760482327080904 1.2874299510344742 -4.903228592704098
O -2.0486580403985175 -3.3187615289184254 6.511407960724981
H -2.1307405383275073 -2.4043906619819793 6.821497847905505
H -2.4393161094655644 -3.844137870443708 7.225780354605311
O -6.041892821971611 -7.111130310433872 1.6041035874118932
H -5.230403407798077 -7.406660466449862 1.1646559631499573
H -6.0999651821249525 -6.170151747574859 1.380164110039089
O 4.063282513669515 -6.417266653446196 3.232632889145643
H 3.3432347195488146 -6.366661809156342 2.586151891113749
H 4.466056927124072 -5.536412796336473 3.2038023743868176
O 2.5890926272322345 -4.678996965316013 6.414381101568024
H 2.4412034092925317 -5.079231146719412 5.544376080804617
H 1.741001970416019 -4.789248264989748 6.869956378598387
O 7.819485201242357 -1.5193423236329928 -5.9350412726293404
H 7.8156848428761485 -1.5836368469686537 -4.968180823316551
H 8.736840865226732 -1.7140811084896543 -6.17896202969675
O -7.237098987027251 -0.1674941490163695 -5.209166482780669
H -7.143161695625778 -0.027788121026933066 -6.163433409760522
H -6.3373368867466535 -0.057220811549355766 -4.8667779633432655
O -1.4018636626672996 -4.462845061363697 4.0122733015335745
H -1.2653192207017068 -5.405117187465644 4.192401624236094
H -1.1593347036662722 -4.028080700301747 4.843610536773445
O 2.626358345386989 0.8948679234913907 -7.485091274734069
H 2.3946158124096684 0.3334276323741332 -8.240106211552822
H 3.2243859831001216 0.3436303027551739 -6.958344680709651
O -5.652377765058832 -3.114569616514706 -3.423611132746106
H -5.907651928006289 -3.2419976489980633 -2.497563318014654
H -4.856398913180743 -3.658007339365054 -3.523886020160991
O 8.38809877215816 1.0181951376779024 -2.515265883912133
H 8.33706288697364 1.849577036931267 -3.010409128758816
H 8.453951134451119 1.3001702044574572 -1.5905413452547545
O 1.9891379774674127 -3.5322287468145785 -7.944098123979713
H 2.20425147503947 -4.462414006092075 -7.778420957522853
H 2.4408775737733723 -3.0568707370342274 -7.230706195256806
O 7.597982052922021 -3.2993715688904937 -1.9742460477820563
H 7.498268505017584 -3.103119198811203 -2.917914195227212
H 7.274989416157097 -2.499207191441732 -1.533366619868169
O -5.351123741463185 -9.388713639956785 -1.5736462034871601
H -6.284377074305963 -9.402815771760816 -1.3132490001296167
H -4.898015017988923 -9.839136584557643 -0.8451040976424693
O 4.200676747760665 -0.0694305728729323 1.7744799443831045
H 4.240133922740002 0.008408799481042672 2.739545496744285
H 4.922122059895748 -0.6794480419172786 1.559172505219845
C -6.419452696133491 8.653175663857192 -13.598278494446792
O -6.621867515394514 8.39318168839545 -14.749038952129938
O -6.217037876872468 8.913169639318935 -12.447518036763645
O -9.60339718857703 -6.252925872141563 0.8861444347534773
H -9.94689012139411 -5.551057310737366 0.31311696201144135
H -8.713096432932263 -6.420929866173118 0.5424859316027493
O -16.839425072780326 5.006442247990699 3.8638535236723968
H -16.449635233633728 4.9352015851486355 2.979570759984279
H -17.763733582241905 4.746212681810921 3.733867768595921
O -2.0109141012471805 17.338890421698533 8.328932799087402
H -1.2146570703106012 17.033379727816566 7.868927023571675
H -2.43360720788404 17.93613819968568 7.6936473722192105
O -7.411113449008633 12.357595754343393 -1.4005199396897385
H -7.93729683465701 11.968677201202372 -2.115251190293984
H -6.667462011350956 11.744983570297778 -1.2973172482106374
O 0.4736426521722543 -15.16161964716655 -9.6830888905697
H 0.6888283880139707 -16.104887286245724 -9.629157294484877
H 0.21443097889823237 -14.928614354958746 -8.778943002705555
O 8.883778293369936 -13.256389698048254 -12.211266664752968
H 8.8333178910467 -13.088907859811648 -11.258181706022496
H 9.817803658055709 -13.464943808913702 -12.363134190131925
O 3.8901559993074617 5.916893931693415 11.03167034732817
H 3.558477157973474 6.816932205501594 10.894238150257259
H 3.093227442973948 5.400791623964526 11.22533301372801
O 12.169628681256192 -8.324792104649507 -0.8093406728255217
H 12.280131438444222 -7.863837716154515 -1.654490097058333
H 11.214547719412934 -8.293386344223888 -0.6487294066059941
O -3.3049996732695295 -10.747743687806306 14.788526665320171
H -3.272267364498557 -10.838444166971371 13.824333025047768
H -3.3388099564488014 -9.790098268462444 14.932519928569034
O 10.233007180498245 10.452548516178771 -9.708126065867608
H 10.459312367992915 9.51652355529604 -9.60037361059404
H 10.25341352166409 10.589380856975968 -10.667199804457184
O -9.590599343918095 -1.004663209856311 12.925690988976573
H -9.412026905783307 -1.9487032978642413 12.799724511401873
H -10.183644962592162 -0.9787906356149534 13.691582266099912
O 10.562181417281321 2.3454369207344357 1.6009874586029789
H 10.457085006529882 2.5874590970376152 2.5333754505487343
H 11.103571300712328 1.5422128786360285 1.627256767951676
O 16.17575544926196 2.4912033073493136 -2.0136401227051923
H 15.97113999453203 2.533957370370543 -2.9598282449519475
H 15.967236090648042 3.3799590772893113 -1.6886865832851625
O 2.583655399539667 5.219338788678034 -19.45131526492253
H 3.0309370056667215 5.592010132493566 -18.67670401324907
H 1.7361905069403454 5.688295516665959 -19.480380491336213
O -4.112586728740315 4.186394468797638 5.160397584830136
H -4.515902291774718 4.407815418060629 4.307592403829387
H -4.712777647600152 4.578856818198122 5.812092382662094
O -0.5550725464311963 -14.776413193054777 0.22285817528843843
H -1.1406549799668557 -14.103803344781761 -0.15616235507978105
H -1.102883616008734 -15.213416495908437 0.8921063278023664
O 2.538427196051107 3.7534629411874416 -15.075445205237724
H 3.026315077434275 3.940124322929191 -15.891588759194809
H 2.727783637756002 4.517042316619653 -14.509713272517454
O 18.10224092188843 10.49011435527496 5.645844421856356
H 18.027164688712993 10.496760394236059 4.679776750169577
H 18.809481907890856 9.85136368966119 5.821257417943549
O 3.052429777483855 -3.41525166151867 1.6238082887669567
H 2.1885530784871188 -3.784009076548557 1.8619308930929215
H 3.631037527972658 -4.190650976658706 1.5696703403883085
O -3.1313666312972472 -10.868755609880338 -18.939947007926673
H -3.8174453372446244 -11.47169446901168 -19.26356421744275
H -3.628039764953682 -10.106715838607492 -18.605921365793733