194

C -5.0710522388059704 1.0783507462686561 0.47044029850746183
C -3.8153522388059704 0.1782507462686569 0.19534029850746193
C -4.11845223880597 -1.3219492537313435 0.5608402985074619
C -2.96945223880597 -2.3874492537313436 0.7034402985074619
C -2.52015223880597 0.7359507462686565 0.7384402985074618
C -2.20305223880597 0.7852507462686571 2.097440298507462
C -1.5755522388059702 1.205650746268656 -0.18965970149253808
C -0.9533522388059701 1.2695507462686564 2.508640298507462
H -2.91125223880597 0.4298507462686567 2.840840298507462
C -0.32655223880597006 1.6562507462686575 0.21554029850746192
H -1.7850522388059702 1.178550746268657 -1.2573597014925382
C 0.004447761194029898 1.6956507462686563 1.569740298507462
H -0.7158522388059702 1.2676507462686573 3.5705402985074617
H 0.3943477611940298 1.9193507462686572 -0.5551597014925382
C -1.76045223880597 -2.1592492537313435 -0.1734597014925381
C -0.5287522388059701 -1.936549253731343 0.464840298507462
C -1.8068522388059702 -2.121249253731343 -1.5681597014925381
C 0.6114477611940299 -1.614449253731343 -0.2582597014925381
H -0.4544522388059702 -1.954049253731343 1.5506402985074619
C -0.6479522388059701 -1.8270492537313432 -2.2998597014925384
H -2.74345223880597 -2.290549253731343 -2.092259701492538
C 0.5698477611940298 -1.5506492537313434 -1.6506597014925382
H 1.5072477611940298 -1.351949253731343 0.2991402985074618
H -0.7173522388059701 -1.7640492537313435 -3.3840597014925375
C 1.7791477611940298 -1.082849253731343 -2.4255597014925376
H 1.4739477611940297 -0.9102492537313429 -3.464259701492538
H 2.1252477611940295 -0.1337492537313434 -2.0010597014925384
C 1.3965477611940298 2.0964507462686566 1.997440298507462
H 1.51704776119403 1.8448507462686567 3.057640298507462
H 2.1256477611940294 1.5207507462686571 1.4165402985074618
C 3.94864776119403 -1.4275492537313434 -3.522959701492538
H 4.81734776119403 -2.087049253731343 -3.615159701492538
H 3.4305477611940303 -1.3641492537313429 -4.484459701492538
H 4.26984776119403 -0.441449253731343 -3.176459701492538
C 2.60904776119403 -3.4296492537313434 -2.8992597014925376
H 1.9825477611940296 -3.869549253731343 -2.119359701492538
H 2.06294776119403 -3.373349253731343 -3.845759701492538
H 3.5215477611940305 -4.019849253731343 -3.0234597014925377
C 3.7281477611940304 -2.060049253731343 -1.156659701492538
H 3.9048477611940298 -1.032549253731343 -0.8295597014925382
H 3.12924776119403 -2.623249253731343 -0.4404597014925382
H 4.68244776119403 -2.5769492537313434 -1.3005597014925383
C 3.1110477611940297 3.755250746268656 2.588740298507462
H 3.40124776119403 4.809350746268656 2.534540298507462
H 2.9823477611940303 3.461750746268656 3.634840298507462
H 3.86514776119403 3.1392507462686563 2.091540298507462
C 1.99744776119403 3.9574507462686572 0.40494029850746194
H 2.67914776119403 3.230350746268657 -0.04295970149253803
H 1.03214776119403 3.981150746268657 -0.10175970149253821
H 2.4399477611940297 4.958250746268657 0.368240298507462
C 0.7418477611940297 4.4992507462686575 2.475440298507462
H -0.18475223880597014 4.424250746268656 1.901240298507462
H 0.57844776119403 4.189650746268656 3.511940298507462
H 1.1210477611940297 5.524350746268658 2.4432402985074617
N 3.00114776119403 -2.025349253731343 -2.490159701492538
N 1.7831477611940298 3.586450746268657 1.862540298507462
C -3.55075223880597 -3.8435492537313434 0.6444402985074619
H -2.62515223880597 -2.2736492537313433 1.7424402985074618
H -4.67195223880597 -1.3478492537313436 1.5102402985074619
H -4.83415223880597 -1.6757492537313432 -0.1945597014925382
H -3.7169522388059697 0.17335074626865676 -0.900559701492538
H -3.9132522388059705 -4.043149253731343 -0.34225970149253815
H -4.35435223880597 -3.9354492537313432 1.3449402985074619
H -2.78115223880597 -4.545049253731343 0.8904402985074619
H -5.24235223880597 1.138950746268657 1.5249402985074618
H -5.92805223880597 0.6501507462686567 -0.006059701492538094
H -4.89895223880597 2.059650746268657 0.08004029850746197
C 1.3312473930770734 -0.06614946615947592 4.503067488305451
O 0.37325836833685844 -0.6931158690149197 4.92844456428369
O 1.9157061202377554 -0.2939917511383543 3.437643932379771
O 1.8645127309740552 0.8932081343102909 5.072197928730586
O 0.26375275902121587 -6.057412978283314 -0.5112735496887588
H -0.2553511275650716 -5.241643375402458 -0.5746649280191138
H 0.49024716645580146 -6.262762247246787 -1.430780975127522
O -8.657700492877899 -3.3789082125764525 7.746082425969679
H -8.713445819582748 -3.4905147790014093 6.785143411369168
H -9.27653512094079 -4.03812280723109 8.094567383470837
O -6.057025506322081 4.155182529277582 6.840619731729567
H -6.825639089902458 4.382709215600607 6.296163927236131
H -5.668584855153978 5.0134408313476015 7.0674864144927865
O 5.3119278462956085 1.6992573994796554 4.847542847949606
H 4.504410543626559 1.569621142116111 4.327852936976846
H 5.451052189509691 0.8439248936129642 5.281147121260024
O -3.993073485598506 0.8438538623166012 -5.6642898596653755
H -3.969147913718885 0.8578872291199258 -6.632896068878591
H -3.0674553911755167 0.7130660715022002 -5.409167063054331
O 6.524687955439513 -0.034163762109695295 -1.4164879355218023
H 6.615715560437141 -0.09007184435134041 -2.3795848249199874
H 7.266449621833749 0.5263612682641106 -1.1434251865198735
O 1.2944847459777897 -1.1262819687552703 8.616328084085394
H 1.4749896387973693 -0.34204347462161566 9.156101485511556
H 1.5904972819719316 -1.8645434409963815 9.169779546671505
O -0.40488663343190723 -9.529649215472901 0.010837931045622806
H -0.2729874819391074 -10.084524399580538 0.794217469198744
H -0.5195291394067865 -8.6379090992398 0.3722498915897887
O -10.8449060471089 1.6085350869268633 3.0861128495488424
H -10.78407429049875 1.1060731816490872 2.2597963919901463
H -11.04180371338638 2.5120904513358453 2.796663446781742
O -9.03525811502336 -0.10883414781379686 0.037381900503711596
H -8.464061425387854 0.15616953468710593 0.7739107505227728
H -8.962940912735666 -1.0749932473343509 0.020987969708717857
O 5.372599402364275 -4.0033942075988005 2.2164315081358135
H 4.618785342713303 -3.8719411435774336 1.621913373566382
H 5.953890875704076 -4.6053020988789 1.7277914998094515
O 1.9210739521307105 5.440761155363457 -4.882109285002823
H 2.0104633207540568 5.050374060259217 -5.764478149850848
H 1.6174927985006688 4.704508007444827 -4.330084168146208
O 3.4599592027530393 -2.3331866880159438 7.169418875389706
H 3.530001097595231 -2.1901614957033626 8.12524589124083
H 4.281304349302984 -2.7937476271343753 6.940863158118847
O -0.9372395146096952 1.9295940231157922 -5.448706924416818
H -0.24999895027969332 1.2801697165539647 -5.236773364813646
H -0.4404727004461382 2.7261934028469774 -5.688736307738278
O 6.594690673279778 4.470885443520752 -2.5833330714373797
H 6.7546019441132366 3.5675000842499807 -2.895247538905066
H 6.9705321551280095 4.480111608343366 -1.6902373303744227
O -3.614589449056436 -9.632513619317026 -1.8586382035654596
H -3.017618423648966 -9.442079759807626 -2.5977781746645126
H -3.7581453403807843 -8.768065476835428 -1.4450163239142637
O 1.3136580264852364 -2.729847259457468 -9.599236150833109
H 0.936529259449939 -2.044823013267529 -10.171497482836543
H 1.751854021047368 -3.3350879147114334 -10.21618830771195
O 6.359623522862811 -1.5674009427616797 5.050864719569404
H 6.403064656917175 -2.2168079604231874 5.7687440619271975
H 7.285877761337961 -1.3303415315877039 4.893327849025815
O -3.215916142593967 -0.5195770250657508 5.47364484557336
H -2.4731509491636285 -0.08173852968436401 5.915871796686199
H -3.0383838567861945 -1.4640623185364456 5.597708386605527
O 2.572854192690769 -7.818629945262379 8.01357838705725
H 1.7576131390374266 -7.30654893269294 7.903476534647549
H 2.3924450473563246 -8.648915856806473 7.54770309293758
C -13.241092194085695 4.508829224056187 -3.6529353314861406
O -12.821629032327273 4.292232975768679 -2.5529557960149556
O -13.660555355844117 4.725425472343697 -4.752914866957325
O -8.811045574069189 15.82163953038475 -14.174873660067899
H -9.453447680934215 16.53202458697497 -14.027768386985354
H -8.143271479609815 15.96385053603821 -13.487257682257615
O 14.306051190645931 3.8059354221363586 12.157172630856934
H 13.415564117675244 4.1767381613425485 12.064947588871117
H 14.34790920147213 3.525243076024877 13.083683104658558
O 10.103031428396896 -15.450614602460371 3.721663048473629
H 9.275552409640165 -15.690731314627914 4.165047526049522
H 10.013732673824776 -14.499635550445454 3.558486704107538
O -16.94674515435696 6.850815538385866 -10.115550402668857
H -16.94232234818039 6.803954660827699 -9.147690984240741
H -17.511962857937696 7.6133981562346555 -10.310380181742294
O -6.1247790745128805 8.755356221415749 3.6034229386103735
H -5.9029326100372135 8.935944749445765 2.677604767129817
H -5.410953512179229 9.180226964948453 4.102321587785747
O 14.727890012424751 -10.97947635935812 4.415511235730229
H 15.557782111790576 -10.950519814805999 3.9161036077971065
H 14.944330620137046 -10.54560711545722 5.254482562314153
O 24.63222209924466 -0.3435959931903798 -3.1587414788579533
H 25.27501296211854 0.26582297817783873 -2.7658091935436078
H 24.430553776513186 0.05221122948067425 -4.019920016902245
O -9.050506745483448 9.252434559935315 10.909940139495921
H -8.90724325537677 9.000842169635195 9.985200068748728
H -8.640441168091856 10.127539959017984 10.980641674379289
O 10.013031008095977 5.160653393893103 -13.438330181325327
H 10.08472661687611 5.186135271195011 -14.404341449639945
H 10.854047804394801 5.5313499197922855 -13.131350086971413
O -3.7960838642611874 -12.6836750951246 2.6951731286609837
H -3.3863015987651375 -12.484849873953554 3.550459269792249
H -3.9988314386564707 -11.811666338340224 2.3244224125885866
O 15.107851245598477 8.20220242468654 5.3102973182907505
H 16.00619897286411 8.245841428870577 4.949694551897455
H 15.189294834003073 8.59970455855629 6.190252396562804
O -9.538379479127224 9.512517023246797 3.8354897485521944
H -9.383003232199302 9.865197678159609 2.946421734033134
H -10.356006642518889 9.947634942766 4.120305763020097
O -8.073336195567059 -15.48974517843067 9.408940524696444
H -7.597153808620121 -15.389237059319981 8.571017014312382
H -7.529316947334689 -15.004099146229704 10.047025889878991
O -8.865395370336689 3.761374482580445 17.625969999200517
H -9.547574562859657 3.4453268233047325 18.237290523357082
H -9.09203400895151 4.692667650273155 17.483527352511757
O -13.699996859263551 7.232290944604911 -1.0699619457714609
H -14.468420120987592 7.803975688847154 -0.9227559644321497
H -14.054780632207489 6.490813380305098 -1.5830910137413845
O -12.44642738108729 -6.957770355891959 -3.3298521396556566
H -12.500651249538178 -7.181997889663345 -2.3887096732410207
H -11.680977594179751 -6.3662316592608 -3.3858033542189787
O -7.046648441490123 15.459439941604236 -3.430014662352656
H -7.1170334887795565 15.315821027478407 -2.4743018867116775
H -6.234489561841986 15.978536240190655 -3.5295080355117006
O -9.867645827883363 -6.37307024206255 15.629195958904518
H -9.693089063458373 -6.484221990733837 16.575844035890253
H -8.996166418788835 -6.472132582311745 15.217283059654436
O 10.656466333601625 -3.260740688987702 -1.3027382405173618
H 9.983373629128579 -3.0544397222905855 -1.9685861805344507
H 10.599987819068987 -4.222953582723502 -1.2031467307147432
O -0.9104006251854035 -14.43927099198939 13.004617208445632
H -1.1772963540139831 -14.13022971434208 12.12585244154656
H -0.174607821563741 -15.044129055358331 12.826522801974942