194

C -5.0710522388059704 1.0783507462686561 0.47044029850746183
C -3.8153522388059704 0.1782507462686569 0.19534029850746193
C -4.11845223880597 -1.3219492537313435 0.5608402985074619
C -2.96945223880597 -2.3874492537313436 0.7034402985074619
C -2.52015223880597 0.7359507462686565 0.7384402985074618
C -2.20305223880597 0.7852507462686571 2.097440298507462
C -1.5755522388059702 1.205650746268656 -0.18965970149253808
C -0.9533522388059701 1.2695507462686564 2.508640298507462
H -2.91125223880597 0.4298507462686567 2.840840298507462
C -0.32655223880597006 1.6562507462686575 0.21554029850746192
H -1.7850522388059702 1.178550746268657 -1.2573597014925382
C 0.004447761194029898 1.6956507462686563 1.569740298507462
H -0.7158522388059702 1.2676507462686573 3.5705402985074617
H 0.3943477611940298 1.9193507462686572 -0.5551597014925382
C -1.76045223880597 -2.1592492537313435 -0.1734597014925381
C -0.5287522388059701 -1.936549253731343 0.464840298507462
C -1.8068522388059702 -2.121249253731343 -1.5681597014925381
C 0.6114477611940299 -1.614449253731343 -0.2582597014925381
H -0.4544522388059702 -1.954049253731343 1.5506402985074619
C -0.6479522388059701 -1.8270492537313432 -2.2998597014925384
H -2.74345223880597 -2.290549253731343 -2.092259701492538
C 0.5698477611940298 -1.5506492537313434 -1.6506597014925382
H 1.5072477611940298 -1.351949253731343 0.2991402985074618
H -0.7173522388059701 -1.7640492537313435 -3.3840597014925375
C 1.7791477611940298 -1.082849253731343 -2.4255597014925376
H 1.4739477611940297 -0.9102492537313429 -3.464259701492538
H 2.1252477611940295 -0.1337492537313434 -2.0010597014925384
C 1.3965477611940298 2.0964507462686566 1.997440298507462
H 1.51704776119403 1.8448507462686567 3.057640298507462
H 2.1256477611940294 1.5207507462686571 1.4165402985074618
C 3.94864776119403 -1.4275492537313434 -3.522959701492538
H 4.81734776119403 -2.087049253731343 -3.615159701492538
H 3.4305477611940303 -1.3641492537313429 -4.484459701492538
H 4.26984776119403 -0.441449253731343 -3.176459701492538
C 2.60904776119403 -3.4296492537313434 -2.8992597014925376
H 1.9825477611940296 -3.869549253731343 -2.119359701492538
H 2.06294776119403 -3.373349253731343 -3.845759701492538
H 3.5215477611940305 -4.019849253731343 -3.0234597014925377
C 3.7281477611940304 -2.060049253731343 -1.156659701492538
H 3.9048477611940298 -1.032549253731343 -0.8295597014925382
H 3.12924776119403 -2.623249253731343 -0.4404597014925382
H 4.68244776119403 -2.5769492537313434 -1.3005597014925383
C 3.1110477611940297 3.755250746268656 2.588740298507462
H 3.40124776119403 4.809350746268656 2.534540298507462
H 2.9823477611940303 3.461750746268656 3.634840298507462
H 3.86514776119403 3.1392507462686563 2.091540298507462
C 1.99744776119403 3.9574507462686572 0.40494029850746194
H 2.67914776119403 3.230350746268657 -0.04295970149253803
H 1.03214776119403 3.981150746268657 -0.10175970149253821
H 2.4399477611940297 4.958250746268657 0.368240298507462
C 0.7418477611940297 4.4992507462686575 2.475440298507462
H -0.18475223880597014 4.424250746268656 1.901240298507462
H 0.57844776119403 4.189650746268656 3.511940298507462
H 1.1210477611940297 5.524350746268658 2.4432402985074617
N 3.00114776119403 -2.025349253731343 -2.490159701492538
N 1.7831477611940298 3.586450746268657 1.862540298507462
C -3.55075223880597 -3.8435492537313434 0.6444402985074619
H -2.62515223880597 -2.2736492537313433 1.7424402985074618
H -4.67195223880597 -1.3478492537313436 1.5102402985074619
H -4.83415223880597 -1.6757492537313432 -0.1945597014925382
H -3.7169522388059697 0.17335074626865676 -0.900559701492538
H -3.9132522388059705 -4.043149253731343 -0.34225970149253815
H -4.35435223880597 -3.9354492537313432 1.3449402985074619
H -2.78115223880597 -4.545049253731343 0.8904402985074619
H -5.24235223880597 1.138950746268657 1.5249402985074618
H -5.92805223880597 0.6501507462686567 -0.006059701492538094
H -4.89895223880597 2.059650746268657 0.08004029850746197
C 2.06929160877703 -0.7413845083362607 3.7335651094262734
O 0.8524031198919737 -0.6419851300355097 3.700737258255842
O 2.8181451654497276 -0.0863882641679492 4.467615335830473
O 2.7402303740975023 -1.5123640230333906 3.0378064260398436
O -5.422078606873589 2.394361420607607 -4.631441293129042
H -5.362787988612801 1.8195763755123564 -3.8535761818011802
H -4.609433561937822 2.920956567883476 -4.595838960244077
O 4.703017895131125 1.7327604071979668 -5.929663469874827
H 5.072109369018056 1.0540626945586824 -5.3447632598712955
H 5.433203972519205 2.3577195151792445 -6.053018040280037
O 5.426175083287351 2.234508455696575 7.501309268626143
H 4.630526512543768 1.7871879691561943 7.176016952247515
H 5.259645902918349 2.348534620244724 8.44905818589488
O 1.0600315375104232 -4.759222621148551 -6.468251025726273
H 0.16537940431141196 -4.837123563473998 -6.104250530332012
H 1.387327406261981 -5.671170266973823 -6.482065868175894
O 9.888086996071992 -5.5980197456286245 4.82411877641659
H 9.992844768494134 -5.867642644942681 5.748941277322918
H 10.544836613055352 -6.129458847950627 4.349551220197885
O 8.826833024578876 4.624321094774512 -3.8632013475792704
H 8.550691534552751 5.278703365689013 -4.5223652709692965
H 9.727907360866647 4.893398748091975 -3.6294831384711217
O 6.870885638648226 3.8377965155648406 2.1830605265040988
H 7.756914555002611 4.22395407077136 2.1137607513183228
H 6.856924704304063 3.1585089420301573 1.4921658680693999
O 4.983569143991685 -10.434804472370493 2.2865197047977825
H 5.596610159628385 -10.667548081346693 2.999946983872431
H 4.684267286317848 -9.542449330099902 2.5169164112764673
O 7.691586130569397 -6.429705447136187 -4.367668578209377
H 6.724963363243389 -6.3725718569624705 -4.3310143088690545
H 7.918991863396058 -7.021927853027841 -3.6351925042400834
O 1.0842706078811335 8.749395191917374 -3.8156064403773797
H 0.6605483287095408 8.293854477228276 -4.55851252077663
H 1.4186010031578218 8.02961226198666 -3.2596409154799373
O 5.957669865566418 -4.495437537650323 -2.620041208578726
H 6.719992403378637 -4.657116499330406 -2.044114460985258
H 5.4973834076024675 -5.347805007721376 -2.6438743132793556
O 0.799555883331029 -3.5397522709574822 6.812632070866091
H 0.1873153561783516 -2.8049693078368474 6.656995022193635
H 0.3272270512923443 -4.314164461929203 6.471819545862461
O -4.575039690084294 5.48055670152945 5.418455643334655
H -3.9585298140665826 5.728636857798397 4.713232865952781
H -4.080461206540862 4.834987831763519 5.945328400558842
O -2.6011505293327657 -5.800092180612751 8.648175805921412
H -2.5990647092539207 -5.8395791280878875 7.679979654703233
H -1.6743526154127197 -5.634761769127576 8.877682725406629
O 0.40749091325298126 3.594472321102328 -4.811109855160582
H 0.48941728275488006 3.684301592466749 -3.849763856632281
H 0.688587684444471 2.6837590283165653 -4.985889281492836
O 7.111530734589794 3.9462494852659558 6.250542144033109
H 6.966881338223374 4.038762658206559 7.204211490223546
H 6.7442970093290135 3.074211364999248 6.0416142805663275
O -4.5083013260174765 7.032884626111709 -6.014359301394879
H -4.012957425811568 6.209562837462145 -6.139830452516095
H -5.061693989711851 6.857186786269647 -5.238570172092285
O 5.688498506617352 -1.3479391159895133 6.590648655211565
H 5.258465393280257 -1.3888807807498185 5.723260242549589
H 5.011797381017434 -0.9660233350076939 7.169594133774831
O -7.569101487428562 7.878979438332409 2.392080788766613
H -7.64465639137544 6.967564793020661 2.7123652837095333
H -8.349146093888047 7.9945959497119405 1.8289421037787195
O -1.9861652498647504 6.155098954757366 -0.4565332489011586
H -2.035066960381525 6.228940896075028 -1.4214805776766586
H -2.7170199134256716 6.708236043982246 -0.14212465236620694
C 3.4129541624900837 -0.6969233927835283 21.068128575393988
O 3.065294720889429 -1.4254619108796263 20.184283115137355
O 3.7606136040907385 0.03161512531256605 21.951974035650622
O 10.548673138240819 -6.899776765949396 13.053951652760146
H 10.301576146669552 -6.282045942556254 12.34945249485684
H 10.005120880536625 -7.682859155344996 12.879897469061081
O -6.2413211910294155 -15.31088183327952 -5.131875429873189
H -7.107533253472804 -14.949801776058234 -4.890493549744116
H -6.441335394456115 -16.20158107350178 -5.456854084856974
O -17.98864356893617 8.625142814969415 5.99172140995091
H -18.78302779423371 8.445542011418384 6.516759133226348
H -18.200190246532536 9.44472815268634 5.52003314245068
O -3.681927953987496 16.866326630556376 -2.118771031283946
H -3.5484564541174377 16.492287131173427 -1.2348891565270343
H -3.6620672548671216 16.094892473647572 -2.7048229389549796
O 5.656578212318537 1.758016654977682 -8.964348192630744
H 5.63914101925989 2.2120556130673794 -9.820217298122383
H 4.921749134513946 1.1286656527018217 -9.018250758870419
O -16.30966610718977 0.24716581388823844 -4.6525554285512065
H -16.413453185534912 0.6241348193054765 -5.539172577169097
H -15.496368583539539 0.6546555976665998 -4.318697437122724
O -6.429447487560658 -3.4017597242320443 -10.492374720081427
H -5.964037301241791 -2.560573925026923 -10.370854488900449
H -7.239880762821814 -3.2982531327939775 -9.971369694982487
O 4.628325655376565 -14.350258054518578 3.1303035337091965
H 4.219226243947631 -13.507411539327993 2.8828873250655653
H 4.251253741350442 -14.546772570780673 4.001027807432485
O 6.814280168363346 -8.538251512280699 6.903332411480522
H 6.566450637177048 -7.768406910078957 6.36958418541057
H 6.636466313734628 -9.29300171206109 6.322215974496042
O 4.689761402340903 9.512457702863395 -1.4272810714756736
H 4.676539013014346 10.18860564829857 -2.1212670088002663
H 3.7643073006257164 9.445637051396103 -1.1479396129414583
O -8.549371286102069 1.865532010774667 9.25568901158235
H -8.706270837604524 1.8222598605643698 8.300452177779073
H -9.236046808747915 2.4681607409796733 9.578608946598068
O 17.025213325798333 -3.2430786150493693 -5.144666214405561
H 16.833525004383247 -4.036468833345614 -4.622406790512697
H 16.513309098517453 -3.368762348278354 -5.957758832496261
O -2.2968825964447825 15.656234794505934 -18.147695552900426
H -3.1088397675125377 16.014785239637522 -18.536455745754054
H -2.0019252815871464 14.994229492682472 -18.790899336370018
O 8.854355923261249 10.175948802550081 10.18179348815321
H 8.905515797523327 9.250764403478419 9.898273027022277
H 8.321107995747317 10.143860228132848 10.990235765309695
O 12.30251770584712 -17.532584486278182 7.0364046793903805
H 12.69350424342432 -18.230697191590643 6.4898376340842105
H 12.911524418492508 -16.785954362040634 6.933369608497634
O -10.56573817295985 -13.10711682004413 0.6004473411436271
H -10.710133360427312 -13.426701626638792 1.5037650804414273
H -10.76008585798704 -13.877505550147875 0.04574730855510367
O -4.803641349379649 -12.580592204178052 9.688184611268282
H -4.623062280123783 -12.020498885665376 10.458024874702293
H -3.9234979609769796 -12.809307676913058 9.353522404434779
O 9.02987295290908 11.461343424386992 7.11297262138411
H 8.478775804951718 11.811254193920355 7.8290883548922015
H 8.433398227342073 11.435750544254685 6.349739465299878
O 3.2536094095298873 -5.114739670811077 15.483057904045562
H 2.4173729948633813 -5.233448698330651 15.008100871808894
H 2.9810678108860866 -4.84608183152357 16.37328595724207
O 9.71553260450241 -4.7459973424934985 1.0574971643175548
H 9.549675598737055 -5.397665044569736 1.7551991183131186
H 8.830868967897093 -4.520616544228739 0.7326345931558507