194

C -5.0710522388059704 1.0783507462686561 0.47044029850746183
C -3.8153522388059704 0.1782507462686569 0.19534029850746193
C -4.11845223880597 -1.3219492537313435 0.5608402985074619
C -2.96945223880597 -2.3874492537313436 0.7034402985074619
C -2.52015223880597 0.7359507462686565 0.7384402985074618
C -2.20305223880597 0.7852507462686571 2.097440298507462
C -1.5755522388059702 1.205650746268656 -0.18965970149253808
C -0.9533522388059701 1.2695507462686564 2.508640298507462
H -2.91125223880597 0.4298507462686567 2.840840298507462
C -0.32655223880597006 1.6562507462686575 0.21554029850746192
H -1.7850522388059702 1.178550746268657 -1.2573597014925382
C 0.004447761194029898 1.6956507462686563 1.569740298507462
H -0.7158522388059702 1.2676507462686573 3.5705402985074617
H 0.3943477611940298 1.9193507462686572 -0.5551597014925382
C -1.76045223880597 -2.1592492537313435 -0.1734597014925381
C -0.5287522388059701 -1.936549253731343 0.464840298507462
C -1.8068522388059702 -2.121249253731343 -1.5681597014925381
C 0.6114477611940299 -1.614449253731343 -0.2582597014925381
H -0.4544522388059702 -1.954049253731343 1.5506402985074619
C -0.6479522388059701 -1.8270492537313432 -2.2998597014925384
H -2.74345223880597 -2.290549253731343 -2.092259701492538
C 0.5698477611940298 -1.5506492537313434 -1.6506597014925382
H 1.5072477611940298 -1.351949253731343 0.2991402985074618
H -0.7173522388059701 -1.7640492537313435 -3.3840597014925375
C 1.7791477611940298 -1.082849253731343 -2.4255597014925376
H 1.4739477611940297 -0.9102492537313429 -3.464259701492538
H 2.1252477611940295 -0.1337492537313434 -2.0010597014925384
C 1.3965477611940298 2.0964507462686566 1.997440298507462
H 1.51704776119403 1.8448507462686567 3.057640298507462
H 2.1256477611940294 1.5207507462686571 1.4165402985074618
C 3.94864776119403 -1.4275492537313434 -3.522959701492538
H 4.81734776119403 -2.087049253731343 -3.615159701492538
H 3.4305477611940303 -1.3641492537313429 -4.484459701492538
H 4.26984776119403 -0.441449253731343 -3.176459701492538
C 2.60904776119403 -3.4296492537313434 -2.8992597014925376
H 1.9825477611940296 -3.869549253731343 -2.119359701492538
H 2.06294776119403 -3.373349253731343 -3.845759701492538
H 3.5215477611940305 -4.019849253731343 -3.0234597014925377
C 3.7281477611940304 -2.060049253731343 -1.156659701492538
H 3.9048477611940298 -1.032549253731343 -0.8295597014925382
H 3.12924776119403 -2.623249253731343 -0.4404597014925382
H 4.68244776119403 -2.5769492537313434 -1.3005597014925383
C 3.1110477611940297 3.755250746268656 2.588740298507462
H 3.40124776119403 4.809350746268656 2.534540298507462
H 2.9823477611940303 3.461750746268656 3.634840298507462
H 3.86514776119403 3.1392507462686563 2.091540298507462
C 1.99744776119403 3.9574507462686572 0.40494029850746194
H 2.67914776119403 3.230350746268657 -0.04295970149253803
H 1.03214776119403 3.981150746268657 -0.10175970149253821
H 2.4399477611940297 4.958250746268657 0.368240298507462
C 0.7418477611940297 4.4992507462686575 2.475440298507462
H -0.18475223880597014 4.424250746268656 1.901240298507462
H 0.57844776119403 4.189650746268656 3.511940298507462
H 1.1210477611940297 5.524350746268658 2.4432402985074617
N 3.00114776119403 -2.025349253731343 -2.490159701492538
N 1.7831477611940298 3.586450746268657 1.862540298507462
C -3.55075223880597 -3.8435492537313434 0.6444402985074619
H -2.62515223880597 -2.2736492537313433 1.7424402985074618
H -4.67195223880597 -1.3478492537313436 1.5102402985074619
H -4.83415223880597 -1.6757492537313432 -0.1945597014925382
H -3.7169522388059697 0.17335074626865676 -0.900559701492538
H -3.9132522388059705 -4.043149253731343 -0.34225970149253815
H -4.35435223880597 -3.9354492537313432 1.3449402985074619
H -2.78115223880597 -4.545049253731343 0.8904402985074619
H -5.24235223880597 1.138950746268657 1.5249402985074618
H -5.92805223880597 0.6501507462686567 -0.006059701492538094
H -4.89895223880597 2.059650746268657 0.08004029850746197
C 1.9028001332856557 -0.7001310731894753 3.840353539819465
O 0.9899186547606862 -1.501759553295118 3.714597090085934
O 2.4923610958253826 -0.45187451441563453 4.89837906719345
O 2.3783340017751913 -0.013092280546851964 2.929039312056316
O 3.93167748171095 2.5303832749086315 8.318357458768377
H 3.593543411750753 1.6871765375642824 8.65545552421707
H 3.5182772738230663 2.616467025943522 7.446203917110707
O -7.482597104787592 -0.5140934322554513 6.162546551032882
H -7.349661158759426 -1.4352219190858202 5.892698997953013
H -6.883414065550903 -0.40206537497606765 6.91580038884142
O -2.115613150482865 -5.35186960498264 -5.91803719252237
H -2.305780115204973 -5.329228406522097 -4.968147062791224
H -1.8911972494447518 -4.434227169167318 -6.133749518670352
O 3.6491071930782133 -3.3948126705372763 -7.091751201832698
H 3.9187934718356936 -4.078744535994607 -6.4605033334307524
H 4.39769777191807 -2.7796582807390213 -7.104367313917798
O 0.6957663957481044 -11.980943783861306 -0.12816650815982467
H 0.06917400202145885 -12.67349761232649 -0.38646579910374923
H 1.5639186153532054 -12.371181325729925 -0.309793402674587
O 5.895807718598662 5.32594183876848 -2.5590062573869643
H 5.987374935249428 5.661339629725422 -1.6545223583837618
H 5.749070264365737 6.122837655546771 -3.0904073498082187
O -1.3509807284323663 -8.123464667713632 -3.5048610548480186
H -2.231848570616989 -8.470986782289346 -3.299270244290171
H -1.2181669977491947 -7.420701684537423 -2.8510670148634896
O 8.633382844063128 -1.4663673855726564 -1.6956981379389788
H 8.499860637872828 -1.791254198418966 -0.7925991753702892
H 8.354785739387385 -2.2073112076931682 -2.254579028673077
O 3.9348051804893904 10.53525461475164 0.6269315836617074
H 3.7801998556441547 10.730486468925935 -0.30952400714074313
H 4.889109302546969 10.375135724770628 0.6781910022612406
O -2.1631038633573363 -2.005137792063276 -4.977170775431824
H -1.7927807532918185 -1.2445617811272354 -5.449772386347427
H -2.8800832252245496 -2.3116931876686984 -5.55243274043706
O 7.523215681253189 4.020881112599907 1.596142968218873
H 7.520165817212087 3.76390152899343 0.6618413312521094
H 6.664129264685388 3.7166745706578346 1.92537062958459
O -8.63285043663236 4.1397069874779735 2.9702902574002743
H -9.506802342704566 3.8231471443465734 2.696492360240013
H -8.216213638333995 4.42210100778612 2.1422628786875366
O -0.543100477343323 -8.695963035068429 5.260198372134908
H -1.0461225499668318 -9.048987434889597 6.009404568374938
H -0.38989252939017915 -7.768953764092936 5.497143683355603
O -2.5823544696680245 2.347961128460676 -8.53027913272485
H -1.9257557488913524 2.1611836338795074 -9.217999747722263
H -2.4879931135513247 3.298708953424627 -8.368611411462588
O -0.3897765521775711 5.129345722254099 -4.27090055112626
H -0.43565564231553244 4.623549870252215 -3.44565330206341
H 0.5261224339424824 5.014011870510789 -4.565500439392208
O -0.7107048617370859 -10.190953629479495 -4.548006252335167
H -0.6899863929572376 -11.063324666871832 -4.126690604547861
H -0.9840934823314349 -10.377319011155532 -5.458768872858354
O -2.089258833842948 -8.510041845896609 1.8694036811085737
H -2.1709713211830834 -9.43472675903831 1.5914680091972222
H -1.159717362910858 -8.425115636552027 2.1296000244413835
O -5.962853282743775 -7.745279762383064 4.015560601900506
H -6.183685500664447 -6.943096967895269 3.5188682900453814
H -6.290990780395839 -7.564961732789653 4.909301691443888
O 1.9086579931604504 -4.2505694697829 8.898745342144515
H 2.4419552309226757 -4.116422357032273 9.696596183615432
H 2.469664553491119 -4.801113279778927 8.332057511993726
O -4.048325114920481 4.365919466237128 7.113874879057139
H -3.4668634643012366 4.546057795166129 7.867811141754333
H -4.658891954564703 3.6904178903144746 7.4453378476567655
C -2.241831465513041 8.292096062642905 9.602881576284156
O -1.2153867715621018 7.687430453989103 9.719539406159777
O -3.26827615946398 8.896761671296709 9.486223746408536
O 8.806836067205223 20.251636462772968 -7.439256048044655
H 8.836133461903906 19.328381743930652 -7.732018312859084
H 8.985167555238867 20.20135267269809 -6.488134938442196
O -0.174159370339952 -10.164926267326962 -20.597251126712035
H -0.7461509285441448 -9.940081337105822 -21.346409168514292
H 0.4115651665771711 -10.852532992639299 -20.948086846755565
O -0.09987592289045288 -8.577538774776281 -0.1634977590487185
H 0.205036548246321 -9.449493396904625 -0.456227803277672
H 0.5824911024064117 -8.288398178421174 0.4607897569460515
O -0.9277683377991961 6.284079491291731 -8.017379185773976
H -0.8410173102778393 6.40039509523255 -7.059301789942161
H -0.012265004222980824 6.234075259648997 -8.33093168110555
O -13.25853597201412 -14.719741349220524 -4.63508755481846
H -14.216016266691428 -14.818667203299846 -4.746499033577784
H -13.141988475061298 -13.778433021048368 -4.43680175964449
O 0.8677616841472269 -11.139322787155756 6.2455868942042825
H 1.169060295331757 -11.782596474988894 5.586507637710931
H 0.09235918513605773 -10.72865468618662 5.83441221152837
O 11.24403421237821 -9.169581320973505 -8.991509208445853
H 10.92773425118192 -8.26533293808021 -9.137305482342317
H 12.208377187295461 -9.078686141817059 -8.964257833547276
O 1.7156538094641638 -12.970721908906752 11.948275886134729
H 1.5656264301421174 -13.905715459528846 11.742737075568826
H 0.8306105536257169 -12.62978500308564 12.146826650031539
O -2.784755767359158 10.13607762910649 0.3244437745814315
H -1.918409646349641 9.897926795571527 -0.03845557234325936
H -3.301367568959318 10.394590367227593 -0.4535313888888213
O -8.344858328114924 -2.6933330358372247 13.923570715100464
H -8.768143167521119 -2.6880786107637453 13.05192302672745
H -7.396974237601599 -2.671229513102315 13.723597893110991
O -6.380921303216654 -14.947298083626361 -13.35205607655066
H -6.327888680962727 -15.04004706232612 -14.31515135990897
H -6.197276671431007 -15.839122047867011 -13.020564582960853
O 3.518315367208351 13.518012758453764 0.8585915923522108
H 3.7200974155557054 13.970355583158861 0.02574266799524183
H 3.1878292144122122 14.223951282359648 1.4342578564111619
O 7.246885425528174 -3.011042987678219 5.360818025786638
H 6.599201807010938 -3.666437713855944 5.660703070600224
H 7.785486005923503 -3.4926867505469734 4.715147332021278
O -6.713332103715181 -4.052161176191258 17.90840845387179
H -7.019448545011174 -4.086201868318331 16.989658589900213
H -5.795223636507025 -4.358369908859749 17.860711506608403
O -7.326118894728233 15.309185135335822 6.311450222859227
H -7.327194648224408 15.65918459233259 7.215035625439627
H -7.540280989666645 16.078284609586753 5.762284910682163
O -3.642356953931378 19.45053068561033 -2.274104223261597
H -3.685553686791244 19.452399716973506 -1.3060660494833116
H -4.571102462878207 19.430910020029785 -2.549801073793614
O 12.05038656628463 2.1107429118701058 -13.118100451147955
H 11.109350215788705 2.0985692954968727 -13.348902849336758
H 12.44196817842746 2.717719064378458 -13.76401510156067
O -5.964600405292742 17.687823789222143 -1.4144998255873187
H -5.937344949947867 17.710763377015446 -2.3828480441356974
H -6.817815619630628 17.27451836475521 -1.214089325791121
O 5.682238848218291 5.367568183711926 -11.151143661002374
H 6.5682946444271515 5.747628311963727 -11.248235276592519
H 5.353987506657095 5.747773230058458 -10.322495892770355
O 3.279861076947488 -6.071944047857861 -0.4481200868660176
H 3.4403355041480768 -6.068857131810821 -1.4037380994965678
H 4.157528705131501 -6.216897146344569 -0.0638674642634516