194

C -5.0710522388059704 1.0783507462686561 0.47044029850746183
C -3.8153522388059704 0.1782507462686569 0.19534029850746193
C -4.11845223880597 -1.3219492537313435 0.5608402985074619
C -2.96945223880597 -2.3874492537313436 0.7034402985074619
C -2.52015223880597 0.7359507462686565 0.7384402985074618
C -2.20305223880597 0.7852507462686571 2.097440298507462
C -1.5755522388059702 1.205650746268656 -0.18965970149253808
C -0.9533522388059701 1.2695507462686564 2.508640298507462
H -2.91125223880597 0.4298507462686567 2.840840298507462
C -0.32655223880597006 1.6562507462686575 0.21554029850746192
H -1.7850522388059702 1.178550746268657 -1.2573597014925382
C 0.004447761194029898 1.6956507462686563 1.569740298507462
H -0.7158522388059702 1.2676507462686573 3.5705402985074617
H 0.3943477611940298 1.9193507462686572 -0.5551597014925382
C -1.76045223880597 -2.1592492537313435 -0.1734597014925381
C -0.5287522388059701 -1.936549253731343 0.464840298507462
C -1.8068522388059702 -2.121249253731343 -1.5681597014925381
C 0.6114477611940299 -1.614449253731343 -0.2582597014925381
H -0.4544522388059702 -1.954049253731343 1.5506402985074619
C -0.6479522388059701 -1.8270492537313432 -2.2998597014925384
H -2.74345223880597 -2.290549253731343 -2.092259701492538
C 0.5698477611940298 -1.5506492537313434 -1.6506597014925382
H 1.5072477611940298 -1.351949253731343 0.2991402985074618
H -0.7173522388059701 -1.7640492537313435 -3.3840597014925375
C 1.7791477611940298 -1.082849253731343 -2.4255597014925376
H 1.4739477611940297 -0.9102492537313429 -3.464259701492538
H 2.1252477611940295 -0.1337492537313434 -2.0010597014925384
C 1.3965477611940298 2.0964507462686566 1.997440298507462
H 1.51704776119403 1.8448507462686567 3.057640298507462
H 2.1256477611940294 1.5207507462686571 1.4165402985074618
C 3.94864776119403 -1.4275492537313434 -3.522959701492538
H 4.81734776119403 -2.087049253731343 -3.615159701492538
H 3.4305477611940303 -1.3641492537313429 -4.484459701492538
H 4.26984776119403 -0.441449253731343 -3.176459701492538
C 2.60904776119403 -3.4296492537313434 -2.8992597014925376
H 1.9825477611940296 -3.869549253731343 -2.119359701492538
H 2.06294776119403 -3.373349253731343 -3.845759701492538
H 3.5215477611940305 -4.019849253731343 -3.0234597014925377
C 3.7281477611940304 -2.060049253731343 -1.156659701492538
H 3.9048477611940298 -1.032549253731343 -0.8295597014925382
H 3.12924776119403 -2.623249253731343 -0.4404597014925382
H 4.68244776119403 -2.5769492537313434 -1.3005597014925383
C 3.1110477611940297 3.755250746268656 2.588740298507462
H 3.40124776119403 4.809350746268656 2.534540298507462
H 2.9823477611940303 3.461750746268656 3.634840298507462
H 3.86514776119403 3.1392507462686563 2.091540298507462
C 1.99744776119403 3.9574507462686572 0.40494029850746194
H 2.67914776119403 3.230350746268657 -0.04295970149253803
H 1.03214776119403 3.981150746268657 -0.10175970149253821
H 2.4399477611940297 4.958250746268657 0.368240298507462
C 0.7418477611940297 4.4992507462686575 2.475440298507462
H -0.18475223880597014 4.424250746268656 1.901240298507462
H 0.57844776119403 4.189650746268656 3.511940298507462
H 1.1210477611940297 5.524350746268658 2.4432402985074617
N 3.00114776119403 -2.025349253731343 -2.490159701492538
N 1.7831477611940298 3.586450746268657 1.862540298507462
C -3.55075223880597 -3.8435492537313434 0.6444402985074619
H -2.62515223880597 -2.2736492537313433 1.7424402985074618
H -4.67195223880597 -1.3478492537313436 1.5102402985074619
H -4.83415223880597 -1.6757492537313432 -0.1945597014925382
H -3.7169522388059697 0.17335074626865676 -0.900559701492538
H -3.9132522388059705 -4.043149253731343 -0.34225970149253815
H -4.35435223880597 -3.9354492537313432 1.3449402985074619
H -2.78115223880597 -4.545049253731343 0.8904402985074619
H -5.24235223880597 1.138950746268657 1.5249402985074618
H -5.92805223880597 0.6501507462686567 -0.006059701492538094
H -4.89895223880597 2.059650746268657 0.08004029850746197
C 3.629407315470073 -0.5578239544238202 2.894025250747571
O 4.060733510625949 -0.6749701221972215 1.7573590784048023
O 4.127474581141489 -1.0727187740829376 3.9017175587735897
O 2.628083862455342 0.09375820943811686 3.2125223631044215
O -7.913859668590205 3.864738462154986 -3.980486559242771
H -7.3332685358096 3.6022635178371556 -4.710546965676299
H -8.698582432562498 4.222301008795443 -4.422438087403581
O -3.4585404593159317 5.0231851096474065 -7.873865255523222
H -3.9020691951608777 4.2174470829614705 -7.568847469595845
H -3.1034892527788296 4.780512084435706 -8.742202970857036
O -2.1569751595904636 6.2065008920597124 2.2727214936611735
H -3.0721614984102037 6.405905283641201 2.5209939463331072
H -1.6615910016637285 6.314589339431468 3.098477733673916
O -9.26729024673517 -3.0696023538277206 2.0456794361418456
H -9.02827709290233 -2.7476697113743955 1.1635233031824361
H -9.240737230759546 -4.034256600178011 1.9579351107358745
O 5.686101050091782 9.88209963242632 -3.3706903130154
H 4.965824902147856 9.705168060143965 -2.747100025781261
H 5.23124584218898 10.136902096779087 -4.187479385116304
O 3.120358304924257 -3.786497807543593 7.278827507618852
H 2.914457649235241 -4.704733466950794 7.5099455525220105
H 2.285571140793 -3.316041942623065 7.42292335788378
O -0.15893233287202957 -1.2745875664251252 5.884389959805529
H -0.7167764965394265 -0.5358307135613681 6.170773545768588
H -0.7381158446548234 -2.047856645230456 5.95897773187645
O -4.52177103890064 5.311155005763775 -0.894809473102669
H -3.7485529385125673 5.148442615668451 -0.3338943242238679
H -4.5822589366237265 6.277410316725744 -0.9354768133996112
O -0.7235844623844674 -5.932442670843681 -4.048610580548177
H -0.7292725723154274 -5.8404036690944 -5.013216108451894
H -0.6236678778783329 -5.023717444733139 -3.727367551252645
O 5.86643104321923 -6.80507003265915 6.717398813211547
H 6.1414392113785885 -6.537873974311717 5.827486384514639
H 5.96959930751202 -5.99952989628507 7.246003904213557
O -3.323647273808122 -4.549011375141784 6.358612725386693
H -3.3348391964073834 -5.415534516382311 6.792179033421789
H -3.3094749857122716 -3.9191017099354113 7.094802173986523
O 5.437857762262084 -4.864250379608338 10.275408638355813
H 4.480234518959022 -4.732573353089173 10.207686843689714
H 5.536220475063665 -5.497526231939665 11.002215638792892
O 1.7733241287736075 10.431915749285244 -0.9999500741378287
H 2.423907671682339 10.75566426300055 -1.6409612366486332
H 1.8552121871889358 9.467680375117439 -1.0500143667268822
O -10.161045077766126 -3.246027162296554 -3.4588912586572533
H -9.342335653619537 -3.749516236593842 -3.335680107470262
H -10.488036260689901 -3.1066766613395087 -2.5574367958732878
O 0.1032172596846812 6.781277340335132 -0.08283707345283814
H 0.17258089683923572 6.896455537957868 0.8767930769348364
H -0.8451586682560177 6.653615866412906 -0.23530868287118878
O 0.9944411246387004 -3.549054727049812 0.7382245891396988
H 1.485329945644631 -3.7646571268843934 1.545386981410906
H 0.49092691005395217 -4.3548660334487685 0.5482153301792213
O -7.238805392800407 0.45210901793353786 2.6183529309557745
H -7.19901269845339 1.0071471149487967 3.4116477117518444
H -8.167598672394703 0.49912180272764806 2.3461493561328606
O 6.534402918693129 -4.327391436832754 -2.077283482157818
H 7.452765444583262 -4.306741579654651 -2.3857493819574858
H 6.6085698098559265 -4.238254983120406 -1.1152461080528244
O -2.6982482933650616 -10.381986465297928 1.7197920412172805
H -2.3085643736576063 -9.998367808556022 0.9198229631767787
H -3.1366456004710943 -9.63214406866842 2.1493338036095926
O 7.126929335936305 -7.0566158957719916 -4.963456640630564
H 7.208051207993288 -7.056238991595595 -5.929058244148916
H 7.365703032295289 -6.152860691297182 -4.708161523928816
C 19.338447828671207 -0.024281140467206974 -6.326440231597832
O 18.88848272548541 -0.07577284980532006 -5.218424768219979
O 19.788412931857003 0.027210568870906116 -7.434455694975682
O 8.625163286049867 8.35549985901404 5.7879309957564535
H 8.463751208057987 8.94822960941699 5.038541283413402
H 8.440528830224796 7.473163819761991 5.432466263526678
O -7.26826291743888 1.7408173170040904 15.471438870225118
H -7.501220201039773 1.5294225641542338 16.38795974799324
H -8.108549574040314 2.013509047721917 15.073293797373898
O -2.112543293746554 -9.388023947543337 5.402767686631583
H -2.2319087709000103 -9.315782173714624 4.443861869630763
H -2.3439536995642647 -10.308348693898603 5.598761384554241
O 10.843156848815656 -3.3824885959957323 6.264117277524853
H 10.887695564152892 -3.386008638240383 5.296144514974838
H 11.752764251432978 -3.193568659928804 6.539590643134375
O -3.5461681214470295 5.891818653508302 12.631222800079529
H -2.8228277719043398 5.839926325622464 13.273915014074726
H -4.25827397229741 6.33589083146855 13.115647306319973
O 16.058906870781414 -5.684220766159872 7.682012922867559
H 15.979151446969054 -5.429628579172836 8.61356498668239
H 16.701454923036636 -6.409478483133802 7.691769398296126
O -10.026302082483376 -6.147919161103342 16.315845509482664
H -10.606671051969624 -6.897700810486215 16.515762228158646
H -9.577588221895454 -6.410763646034072 15.498208308544632
O -7.167730686004679 12.908075770981416 11.041617100172445
H -6.755639255934435 12.860350720649791 10.16590577231748
H -7.5262610875071845 13.807361600334438 11.082883219729558
O 5.709538897902458 -6.686088011868637 -19.17508672264256
H 5.538890072453514 -6.5153894307148965 -20.113547339645216
H 6.084381728695762 -7.579583346431491 -19.16409201403907
O 4.33883714554165 -10.077351543818878 11.55074382468089
H 3.5221309503184113 -9.724715057153507 11.934938899943816
H 4.988528718548764 -9.993792106562992 12.264803083222517
O -4.939503496865987 -1.250656451813441 -17.149613847760456
H -5.795780524215292 -0.8485653974504581 -16.939661964379756
H -5.165662023628385 -2.150624242588444 -17.428669828954593
O -0.40872619617165284 0.2440888445820084 -7.146739700671776
H -0.564117381345481 -0.41496607914364514 -7.8398973623788715
H -0.5563297420592157 1.0917612320593648 -7.592415211609785
O -15.831872412824904 4.857749103602995 11.461533683025253
H -15.733792663563436 4.568698781228527 10.541861115847118
H -14.955795068997993 4.709529465471791 11.848161890487459
O -0.8143115645588099 -13.006162147310325 -2.4043240956678558
H 0.02633830506985113 -12.782011750596764 -2.8309758895776787
H -1.088761465172258 -13.825048406949904 -2.84371514032713
O 14.718227310963309 -4.160500637969974 -9.573387979928683
H 14.715211728776328 -4.319330198074635 -8.617494976501503
H 14.282022321807602 -3.3005483548183547 -9.669144036854538
O -6.375402682039792 3.935907795709266 17.62172755290542
H -5.718570113499904 4.3174999925119195 17.020124918981146
H -6.231295659624585 2.980373143575702 17.549973535856804
O 9.765141600763712 15.338329934374697 2.4134019884684537
H 8.80913465757644 15.412774276693101 2.273845113415637
H 9.916405167946255 15.802929182999112 3.250198747377592
O 3.2945330744168437 6.269009490576977 15.786047953132762
H 3.02898076749287 7.199445967351195 15.733728818245641
H 4.200462234766871 6.303049224295726 16.128240292696123
O 19.737297621306134 8.880644228276351 -3.5892829621076467
H 19.16421968898167 8.813327630480755 -2.8108116935023464
H 19.531224859021936 9.753210202271552 -3.9568759190183678
O 11.921940670397127 6.27917587358823 -1.3892632880017648
H 11.799211327214174 5.908274582919125 -2.276019792236086
H 11.764654363409996 5.528092301869949 -0.7975738168859955