194

C -5.0710522388059704 1.0783507462686561 0.47044029850746183
C -3.8153522388059704 0.1782507462686569 0.19534029850746193
C -4.11845223880597 -1.3219492537313435 0.5608402985074619
C -2.96945223880597 -2.3874492537313436 0.7034402985074619
C -2.52015223880597 0.7359507462686565 0.7384402985074618
C -2.20305223880597 0.7852507462686571 2.097440298507462
C -1.5755522388059702 1.205650746268656 -0.18965970149253808
C -0.9533522388059701 1.2695507462686564 2.508640298507462
H -2.91125223880597 0.4298507462686567 2.840840298507462
C -0.32655223880597006 1.6562507462686575 0.21554029850746192
H -1.7850522388059702 1.178550746268657 -1.2573597014925382
C 0.004447761194029898 1.6956507462686563 1.569740298507462
H -0.7158522388059702 1.2676507462686573 3.5705402985074617
H 0.3943477611940298 1.9193507462686572 -0.5551597014925382
C -1.76045223880597 -2.1592492537313435 -0.1734597014925381
C -0.5287522388059701 -1.936549253731343 0.464840298507462
C -1.8068522388059702 -2.121249253731343 -1.5681597014925381
C 0.6114477611940299 -1.614449253731343 -0.2582597014925381
H -0.4544522388059702 -1.954049253731343 1.5506402985074619
C -0.6479522388059701 -1.8270492537313432 -2.2998597014925384
H -2.74345223880597 -2.290549253731343 -2.092259701492538
C 0.5698477611940298 -1.5506492537313434 -1.6506597014925382
H 1.5072477611940298 -1.351949253731343 0.2991402985074618
H -0.7173522388059701 -1.7640492537313435 -3.3840597014925375
C 1.7791477611940298 -1.082849253731343 -2.4255597014925376
H 1.4739477611940297 -0.9102492537313429 -3.464259701492538
H 2.1252477611940295 -0.1337492537313434 -2.0010597014925384
C 1.3965477611940298 2.0964507462686566 1.997440298507462
H 1.51704776119403 1.8448507462686567 3.057640298507462
H 2.1256477611940294 1.5207507462686571 1.4165402985074618
C 3.94864776119403 -1.4275492537313434 -3.522959701492538
H 4.81734776119403 -2.087049253731343 -3.615159701492538
H 3.4305477611940303 -1.3641492537313429 -4.484459701492538
H 4.26984776119403 -0.441449253731343 -3.176459701492538
C 2.60904776119403 -3.4296492537313434 -2.8992597014925376
H 1.9825477611940296 -3.869549253731343 -2.119359701492538
H 2.06294776119403 -3.373349253731343 -3.845759701492538
H 3.5215477611940305 -4.019849253731343 -3.0234597014925377
C 3.7281477611940304 -2.060049253731343 -1.156659701492538
H 3.9048477611940298 -1.032549253731343 -0.8295597014925382
H 3.12924776119403 -2.623249253731343 -0.4404597014925382
H 4.68244776119403 -2.5769492537313434 -1.3005597014925383
C 3.1110477611940297 3.755250746268656 2.588740298507462
H 3.40124776119403 4.809350746268656 2.534540298507462
H 2.9823477611940303 3.461750746268656 3.634840298507462
H 3.86514776119403 3.1392507462686563 2.091540298507462
C 1.99744776119403 3.9574507462686572 0.40494029850746194
H 2.67914776119403 3.230350746268657 -0.04295970149253803
H 1.03214776119403 3.981150746268657 -0.10175970149253821
H 2.4399477611940297 4.958250746268657 0.368240298507462
C 0.7418477611940297 4.4992507462686575 2.475440298507462
H -0.18475223880597014 4.424250746268656 1.901240298507462
H 0.57844776119403 4.189650746268656 3.511940298507462
H 1.1210477611940297 5.524350746268658 2.4432402985074617
N 3.00114776119403 -2.025349253731343 -2.490159701492538
N 1.7831477611940298 3.586450746268657 1.862540298507462
C -3.55075223880597 -3.8435492537313434 0.6444402985074619
H -2.62515223880597 -2.2736492537313433 1.7424402985074618
H -4.67195223880597 -1.3478492537313436 1.5102402985074619
H -4.83415223880597 -1.6757492537313432 -0.1945597014925382
H -3.7169522388059697 0.17335074626865676 -0.900559701492538
H -3.9132522388059705 -4.043149253731343 -0.34225970149253815
H -4.35435223880597 -3.9354492537313432 1.3449402985074619
H -2.78115223880597 -4.545049253731343 0.8904402985074619
H -5.24235223880597 1.138950746268657 1.5249402985074618
H -5.92805223880597 0.6501507462686567 -0.006059701492538094
H -4.89895223880597 2.059650746268657 0.08004029850746197
C 2.138208602199923 -3.2979923396557336 2.4791929490726625
O 2.1349161273173345 -2.1496306818308897 2.063224006665993
O 2.041848614692985 -4.31065482600706 1.7764405704609543
O 2.238411432430137 -3.6251648942027885 3.6672863362964985
O 2.958528541652051 -1.6894344038877875 8.76899415059494
H 2.9716508440357776 -1.215140487195614 7.924103363173899
H 2.446316305630085 -2.4900012518115826 8.580067467527837
O -0.8472877665929581 0.1595507427311933 -10.297713912209849
H -1.661632268177812 0.08229017833052676 -9.77825150276427
H -1.1517417063054989 0.46139268853978876 -11.166714017298446
O 7.669267691467899 -0.5572911544526635 -7.091564787061214
H 7.101262255567332 0.07347940724843727 -6.6241616632176905
H 8.386653153040298 -0.735192838898123 -6.464930097233062
O -1.8774446276074095 6.272473434695989 0.18533797401581198
H -1.3404676154231863 5.8101061450897635 -0.4756004004094426
H -2.7234997323997105 6.421299163281486 -0.2629962835040477
O -0.20047768460748516 -3.526335453896317 6.166742936743788
H -0.7261712925918076 -4.0603564701880455 6.7811004398176715
H 0.638852989132543 -3.3924887729471136 6.632114863720471
O -7.146956860490639 0.9682732305937318 -3.3751868197941994
H -6.644226142140103 0.19423727811953762 -3.6703097196242895
H -6.518379581159962 1.7010827549583338 -3.4579077313569275
O 5.643140499005121 5.534068933893373 6.736266361522702
H 5.838604873055114 5.5057429899355945 7.684927879808411
H 5.852822870798278 4.639906045761291 6.427287435467073
O 8.164486220744545 3.4749007860701235 0.07109215769792931
H 7.518973315030999 4.011864886091276 0.5547759394662772
H 7.747556003369582 3.3280469865272035 -0.7912100513329154
O 0.857481292948234 7.485652325024643 -5.905228185069686
H 0.6114386273439107 7.243740691464265 -6.810716520251575
H 1.3060936935973857 6.696642409412692 -5.565857869117
O -4.844900180827597 -5.505059546681406 -8.947759856073088
H -4.930559817851892 -5.483404993135261 -7.982793087839287
H -4.0474272272664615 -4.983484699796378 -9.123710166488664
O -5.365471567727747 -5.9501451395578435 -1.8125118364889192
H -6.23223356300466 -5.525841432088835 -1.7250054694540613
H -5.416915683928476 -6.414707494313416 -2.661332939992056
O 1.8997966500192058 2.163532635565271 7.448628780301171
H 1.2576097899119643 1.8584820523667778 8.107041671499285
H 2.638321512482517 2.497919656323675 7.97940961282234
O 6.0890008354485925 1.6464882033909212 -3.7531005278274487
H 5.670857198850163 1.032185561709269 -4.374997239906862
H 5.679426976676168 2.5007186516106263 -3.9568197950670165
O 0.11561633988824899 0.296188203894876 -5.7043693977922585
H 0.550903390036561 0.7224767742869758 -6.457874935679168
H 0.41238332044839565 0.8123962851798459 -4.939895382298401
O 2.9528112398402113 3.3587671302276862 -2.8194811514567406
H 2.2358317607745466 2.969633880259304 -3.34243726555024
H 3.5852573137322206 3.669938274473465 -3.484422071319066
O 0.16838110987736854 3.9177222715952595 -5.2529380497451825
H 0.19024773764245229 4.061950210125028 -6.2108981268035315
H -0.7764679085813214 3.916398905610166 -5.037948456229312
O 2.754764931916786 -8.95392241679154 0.19838096499047708
H 3.174656851071151 -8.314306744034551 0.7929816076847898
H 1.8963851072512492 -8.554008076276123 -0.007080810425971862
O 2.261727646531432 12.384624906905023 -3.5814892784279335
H 2.741560254227412 12.688478302722075 -4.366601461075818
H 2.8856430590970934 12.530956562080124 -2.8546615485243914
O -2.4703080533121575 -6.880460469014282 1.786697140736874
H -3.0216649032104668 -7.263376536159882 1.08787794631534
H -3.109826276596129 -6.562394541699711 2.4415348704602255
O -4.987398067565916 -2.4499582964218116 5.493283445391424
H -5.341005772880836 -2.331699214908173 6.387679184022522
H -4.119983699053178 -2.019256691819493 5.525693095044525
C -4.02515065232632 -14.980426221973596 -1.8398348931583257
O -3.9862544467773047 -13.961163149001065 -2.466259773386179
O -4.0640468578753355 -15.999689294946128 -1.2134100129304723
O -2.7311184894696026 -7.3574549990928215 10.839380019914074
H -2.5539116336266794 -6.487287986937313 10.451598563293699
H -1.9892511021572088 -7.9033274030860285 10.538351711442997
O 2.4093127705361295 3.5261446470209155 -12.568367199123164
H 1.5092369540965174 3.6939198664900696 -12.25106236573318
H 2.295558437073743 3.35498195971474 -13.515322969152924
O 12.865341097176039 0.05072592133437581 13.269543956652358
H 12.798738061719671 0.09773297423020866 14.235112043089586
H 12.280622644018067 0.7586523438380788 12.959856283088076
O -1.0828078186722205 10.392518927151507 5.790901690865118
H -0.7145451895137747 10.81095895660533 4.998274455264426
H -1.3055632421628651 11.138760230851386 6.367500236005329
O -10.956301653149856 6.356449040062787 10.256682756602242
H -10.68954773443403 7.168399312775001 10.713351628315994
H -10.42431666274127 6.357862898687403 9.446774172079415
O 10.595847328654862 -9.34548830031563 1.990078549491395
H 11.552715436658788 -9.456121656646278 2.095582299434246
H 10.284494811565878 -9.13630495616739 2.8835346944326647
O 6.310149730334503 5.199233719895661 -15.012313521127819
H 6.23338443326374 5.059111787335096 -15.968054223453052
H 5.436145261898846 5.52757237517758 -14.752945325502052
O -9.03750842672565 6.001730255218689 -0.11457252622937864
H -9.374097502870793 6.868079756371241 0.15949624720620248
H -8.075225441984095 6.115503613849285 -0.11995996001544373
O -9.746474579878015 -2.528020449178185 -1.8011451974525419
H -9.29412486923394 -1.7563488140240369 -1.4284925660667644
H -9.752972875986464 -2.3574905518614395 -2.755000150036438
O 10.44747039941521 -5.30015665333826 16.33606296470261
H 10.522346651993116 -5.002658488134999 17.255223312738025
H 9.644028784968015 -5.8418278973375415 16.330081334594603
O -7.826888344222187 -13.254643500178338 16.237296860835656
H -7.756570229768788 -13.211114433687314 17.20276459206759
H -7.167801088008181 -12.616355724307379 15.925600456990507
O -6.574927861382908 -10.46531135733722 8.436963511531296
H -7.266473043887154 -9.835144537108837 8.184728707948565
H -6.1585206695017645 -10.058245275093403 9.211472516989806
O 14.144923123067002 -0.7928607528747529 6.310612739852324
H 13.93813019138761 -1.0292377450245782 7.227307867956345
H 13.377252389168923 -0.2760563056573968 6.023285832040425
O 5.935883199767852 -7.519457506817112 -8.03368663349503
H 6.396972825043967 -7.0621229873237175 -8.75285897142418
H 5.6545603990034845 -6.80405808282309 -7.443751814875959
O -16.011951392000586 -8.253844215759091 -11.219619412685162
H -16.257111109069548 -9.139781195511073 -10.9130582639161
H -15.552923486390167 -8.414855948981653 -12.057671050673882
O -9.644577379152903 18.512207208349448 0.6056590922110976
H -9.48454627379707 18.0891362578597 1.4626120507043225
H -9.296935209823063 17.876507220885557 -0.03776331363287788
O 0.4553392538596191 13.232724462603718 8.938697571645891
H 1.4201428590346015 13.199679219766173 8.85485621987264
H 0.22600098147642875 14.12927719413339 8.651366576612327
O 0.21576894981242845 -1.5211744031333971 21.99968205100988
H 0.5366351929577498 -0.8710050611193192 21.35680411732823
H -0.748424006218837 -1.4806746441140342 21.912196867355345
O 14.816874934139939 -6.534713356865416 13.452916289029602
H 14.831959441400397 -6.08838200973749 12.592958067305036
H 14.21746290101571 -7.283896799925251 13.317301660427503
O -15.702039430213057 -3.682052929175501 9.602548035569981
H -15.164220551684359 -3.905166488506688 8.82799103286411
H -15.08838690217115 -3.771252990273858 10.347152540141252