194

C -5.0710522388059704 1.0783507462686561 0.47044029850746183
C -3.8153522388059704 0.1782507462686569 0.19534029850746193
C -4.11845223880597 -1.3219492537313435 0.5608402985074619
C -2.96945223880597 -2.3874492537313436 0.7034402985074619
C -2.52015223880597 0.7359507462686565 0.7384402985074618
C -2.20305223880597 0.7852507462686571 2.097440298507462
C -1.5755522388059702 1.205650746268656 -0.18965970149253808
C -0.9533522388059701 1.2695507462686564 2.508640298507462
H -2.91125223880597 0.4298507462686567 2.840840298507462
C -0.32655223880597006 1.6562507462686575 0.21554029850746192
H -1.7850522388059702 1.178550746268657 -1.2573597014925382
C 0.004447761194029898 1.6956507462686563 1.569740298507462
H -0.7158522388059702 1.2676507462686573 3.5705402985074617
H 0.3943477611940298 1.9193507462686572 -0.5551597014925382
C -1.76045223880597 -2.1592492537313435 -0.1734597014925381
C -0.5287522388059701 -1.936549253731343 0.464840298507462
C -1.8068522388059702 -2.121249253731343 -1.5681597014925381
C 0.6114477611940299 -1.614449253731343 -0.2582597014925381
H -0.4544522388059702 -1.954049253731343 1.5506402985074619
C -0.6479522388059701 -1.8270492537313432 -2.2998597014925384
H -2.74345223880597 -2.290549253731343 -2.092259701492538
C 0.5698477611940298 -1.5506492537313434 -1.6506597014925382
H 1.5072477611940298 -1.351949253731343 0.2991402985074618
H -0.7173522388059701 -1.7640492537313435 -3.3840597014925375
C 1.7791477611940298 -1.082849253731343 -2.4255597014925376
H 1.4739477611940297 -0.9102492537313429 -3.464259701492538
H 2.1252477611940295 -0.1337492537313434 -2.0010597014925384
C 1.3965477611940298 2.0964507462686566 1.997440298507462
H 1.51704776119403 1.8448507462686567 3.057640298507462
H 2.1256477611940294 1.5207507462686571 1.4165402985074618
C 3.94864776119403 -1.4275492537313434 -3.522959701492538
H 4.81734776119403 -2.087049253731343 -3.615159701492538
H 3.4305477611940303 -1.3641492537313429 -4.484459701492538
H 4.26984776119403 -0.441449253731343 -3.176459701492538
C 2.60904776119403 -3.4296492537313434 -2.8992597014925376
H 1.9825477611940296 -3.869549253731343 -2.119359701492538
H 2.06294776119403 -3.373349253731343 -3.845759701492538
H 3.5215477611940305 -4.019849253731343 -3.0234597014925377
C 3.7281477611940304 -2.060049253731343 -1.156659701492538
H 3.9048477611940298 -1.032549253731343 -0.8295597014925382
H 3.12924776119403 -2.623249253731343 -0.4404597014925382
H 4.68244776119403 -2.5769492537313434 -1.3005597014925383
C 3.1110477611940297 3.755250746268656 2.588740298507462
H 3.40124776119403 4.809350746268656 2.534540298507462
H 2.9823477611940303 3.461750746268656 3.634840298507462
H 3.86514776119403 3.1392507462686563 2.091540298507462
C 1.99744776119403 3.9574507462686572 0.40494029850746194
H 2.67914776119403 3.230350746268657 -0.04295970149253803
H 1.03214776119403 3.981150746268657 -0.10175970149253821
H 2.4399477611940297 4.958250746268657 0.368240298507462
C 0.7418477611940297 4.4992507462686575 2.475440298507462
H -0.18475223880597014 4.424250746268656 1.901240298507462
H 0.57844776119403 4.189650746268656 3.511940298507462
H 1.1210477611940297 5.524350746268658 2.4432402985074617
N 3.00114776119403 -2.025349253731343 -2.490159701492538
N 1.7831477611940298 3.586450746268657 1.862540298507462
C -3.55075223880597 -3.8435492537313434 0.6444402985074619
H -2.62515223880597 -2.2736492537313433 1.7424402985074618
H -4.67195223880597 -1.3478492537313436 1.5102402985074619
H -4.83415223880597 -1.6757492537313432 -0.1945597014925382
H -3.7169522388059697 0.17335074626865676 -0.900559701492538
H -3.9132522388059705 -4.043149253731343 -0.34225970149253815
H -4.35435223880597 -3.9354492537313432 1.3449402985074619
H -2.78115223880597 -4.545049253731343 0.8904402985074619
H -5.24235223880597 1.138950746268657 1.5249402985074618
H -5.92805223880597 0.6501507462686567 -0.006059701492538094
H -4.89895223880597 2.059650746268657 0.08004029850746197
C 1.1172740599504505 -0.7240375911976322 3.0759592681269075
O 0.9018113054214953 -0.2619943466160112 4.185854461443503
O 0.9769048188722302 -0.11308935044396412 2.0102809923892795
O 1.509036119481312 -1.8740826754452655 2.8466839373344475
O 7.938426105209258 -2.4542503779913427 1.668281811996791
H 8.793420608477819 -2.0293935785286425 1.502606055680848
H 7.579417438216645 -2.611203952209729 0.7820311155997388
O 1.413992413602117 -2.905777213508573 5.993255297113119
H 0.7184798052580441 -2.833834140140159 5.322394832687966
H 2.2240217007553467 -3.035805112628191 5.477593349996048
O -11.935041953649558 0.2955885595662999 -3.118115742675837
H -12.719320856654342 0.5999410448080504 -2.637237874679414
H -12.235295161369914 0.2284783968152131 -4.036977093266424
O -8.240134505919038 0.30805050511453347 3.8633655052694085
H -7.795109086447278 -0.5515689646467392 3.818934658649808
H -7.948978324288422 0.6788668357126018 4.709938166746298
O -7.375077005286849 8.599757459123246 -5.633685794130488
H -8.279078396260475 8.471407273597498 -5.958146996577346
H -7.469909291326313 8.5969450313696 -4.669341005128826
O -2.238765598876738 -1.0430977150303264 7.320903899120816
H -1.6424481149551031 -0.8023161759645914 6.596061112225266
H -1.643893960994748 -1.3527683374900827 8.020327793714777
O 2.8506257867171096 -7.504708443884784 0.8923126953964526
H 3.268524620318039 -6.660366216475351 0.6655658656760264
H 1.9147425427238713 -7.279989604568036 1.0044997765102175
O -0.752578990942754 2.947292089652802 5.348046903681073
H -0.6482307952313682 3.8877383605809968 5.556947890871253
H -0.28898807644742747 2.4946394661985383 6.068568250191611
O -5.936830537514564 -1.1653689765147046 -3.08371147602842
H -5.158472302470888 -1.6350863496764054 -3.419108858531273
H -6.4641722097889565 -1.8590440946829623 -2.6598158103073595
O 6.359234458990321 3.4390001153581466 -6.438667055542979
H 6.554864526373267 4.29370585587518 -6.851188971037143
H 7.2117858438864975 2.978437350191252 -6.438807602456256
O -4.626503896519497 -9.333764407386449 4.3130996394171355
H -5.481520731867594 -9.763848844308995 4.161636953291668
H -4.861609004897844 -8.429521614407784 4.57006754336731
O 4.905959715714068 0.9645232123718254 0.11069051704847466
H 5.409981181261069 0.33882776669832493 0.6523868604285026
H 5.586774580130882 1.5077022490842515 -0.31405599413822705
O -2.4178373387269794 3.9557062761580584 7.307806917504902
H -2.7887040541050254 3.926464055250827 6.413061071556951
H -2.9052206572256534 4.6731672041616115 7.739859300830697
O 7.212282667586887 0.06957415317051607 6.413916872188747
H 7.02981215392044 -0.47759763980208936 5.635280309010875
H 6.703118827167384 0.8787364905120891 6.255896494587678
O -11.132299715661258 2.6434371412836866 3.4966690727149623
H -10.574690574588741 1.9745012271837186 3.921597473177453
H -10.68271219856115 2.8242059376661395 2.6575292446635226
O 9.585564040889004 0.48015374065487304 5.227982327819717
H 9.633501672590272 0.43972799808828444 6.194954457565355
H 9.42113022652806 -0.4373580135872803 4.963226504801234
O 2.389934189245161 4.755900888950217 8.788493582835308
H 2.1859250442446503 4.745072626870325 9.735716035270052
H 2.5498751545838667 5.691651986213332 8.59419814830995
O -3.843015221672279 -0.5873250592871191 -7.8933648146638316
H -3.421933277252598 -0.6135201979495628 -8.765701428416914
H -3.1064828876891593 -0.7027925844812608 -7.274374252600955
O 7.332379863058268 6.287680051216309 -0.35265176496347994
H 7.990970108106649 6.204286678372455 0.35323193040909295
H 7.73987019128677 6.901989431935209 -0.9815695349946565
O -1.8427326437271485 1.3826119000663712 -6.85535548950709
H -1.8681834160865822 2.2975695515341674 -7.173431126906189
H -2.431781438833712 1.385816439776263 -6.085957548121261
C -3.8578721448671027 -8.160821807820838 -9.408390400852547
O -3.2290563714052753 -7.277748441283414 -8.900856747133043
O -4.486687918328929 -9.043895174358259 -9.91592405457205
O 12.958257887283162 -3.028435209591705 5.733860612590209
H 12.84062973627393 -2.6312267633173807 6.609849439687043
H 12.743226957606266 -2.3099359214329973 5.1202789827334145
O -4.687406509695391 3.8521154597988367 -1.4532004383045367
H -4.975042045229655 3.0592540709239917 -1.9302790205416454
H -4.733627597839057 4.555203294826384 -2.1184019502895075
O -8.552205290729225 -15.98351661238912 11.281981778482677
H -8.165786459363588 -16.641466403107493 11.879267234993774
H -8.316969431252778 -15.134455348679639 11.685368695950803
O 6.076068305356507 -10.025039558141545 5.190439347780083
H 6.277895050876479 -9.906984531552752 6.130809664405369
H 6.940326310146795 -10.18999654406469 4.784472306936787
O 3.166705919338634 15.986646819701914 5.563666228233396
H 3.16295086536691 15.966286902802652 4.594884142182294
H 3.464052230041575 15.099380406694202 5.815271928009413
O 4.8664269324214455 -8.847325559609445 12.642741428859317
H 5.631715735996682 -8.30361873790256 12.882914899608656
H 4.576946269258957 -8.481787103237119 11.793303657820177
O -9.670686753670239 16.79143770498357 -7.8201996348359
H -9.279734134084794 16.84752150010271 -6.935339185915101
H -9.756296753978035 15.839269420923236 -7.978340176686807
O -5.238762414817005 4.1136519875613455 -18.036576555330868
H -4.985555902684062 3.435593777789843 -17.392301083754507
H -4.398592882198453 4.3780924859540935 -18.440492788687884
O 11.102373739580997 9.445852801014066 1.690475384287351
H 11.226562300653205 9.08196916586898 0.8010186634333154
H 11.39532659202903 10.36599058449726 1.609933283810666
O 9.667892034805998 -10.361517748931787 -5.251012444460981
H 9.088346698354323 -10.752659950876014 -5.9219091114338775
H 10.353747749298593 -9.912171370801616 -5.76739574750161
O 15.939276560501614 -19.411944051951416 -6.233075404784527
H 15.22405965860208 -18.985162232840104 -6.728342422678185
H 15.761413257817145 -19.17176640327835 -5.311315519057202
O -0.2986190792751044 -3.9504624967497035 -6.942193999299604
H 0.49294144533174655 -4.0171304088799555 -7.497130646383143
H -0.648684435273654 -4.853842759402049 -6.924297299051011
O 14.325765156056695 -8.614188611467593 8.262856976225095
H 15.148229439175784 -8.101832801356771 8.259482996513288
H 14.50003450200303 -9.332476709926445 8.889478350721529
O 8.308542422221315 -2.7769725345328435 14.636247168493824
H 8.355135723733762 -3.6143208074836943 14.15081510224727
H 8.855886779491907 -2.172324115060753 14.113010713634319
O -9.490622519264013 10.00233011142188 -9.099110653737528
H -8.703894890395441 9.49489334702972 -8.849040813456751
H -9.420720477753289 10.815259015171268 -8.576403999540885
O -14.061460328365406 -7.886616581857016 -11.440356221488976
H -14.990541250234793 -7.612753685967333 -11.4681970507375
H -13.987400724165916 -8.379024797330924 -10.609085345865624
O 0.9593865787538887 -2.7922901863738296 -17.538424037644653
H 1.880637492433912 -3.045740794806939 -17.699752584494277
H 0.49358796152415785 -3.082102786633186 -18.337174467514824
O 4.994891737630672 15.798959756577254 -0.26095712811178284
H 4.685589715067249 15.020366499117502 -0.7478782255971881
H 4.211671990910341 16.366826716807896 -0.2056770401437884
O 12.381609810465884 -2.034321466043769 -13.045461260178309
H 13.049607134712161 -1.3573955111971987 -12.859670562470185
H 12.74009432858559 -2.514044693598958 -13.807246282026675
O -16.352493688654768 -8.406757516132856 0.8910647436789372
H -15.674109490629439 -9.049116909431856 1.148235205843772
H -16.274439676175355 -7.705394572627991 1.555112586017164