194

C -5.0710522388059704 1.0783507462686561 0.47044029850746183
C -3.8153522388059704 0.1782507462686569 0.19534029850746193
C -4.11845223880597 -1.3219492537313435 0.5608402985074619
C -2.96945223880597 -2.3874492537313436 0.7034402985074619
C -2.52015223880597 0.7359507462686565 0.7384402985074618
C -2.20305223880597 0.7852507462686571 2.097440298507462
C -1.5755522388059702 1.205650746268656 -0.18965970149253808
C -0.9533522388059701 1.2695507462686564 2.508640298507462
H -2.91125223880597 0.4298507462686567 2.840840298507462
C -0.32655223880597006 1.6562507462686575 0.21554029850746192
H -1.7850522388059702 1.178550746268657 -1.2573597014925382
C 0.004447761194029898 1.6956507462686563 1.569740298507462
H -0.7158522388059702 1.2676507462686573 3.5705402985074617
H 0.3943477611940298 1.9193507462686572 -0.5551597014925382
C -1.76045223880597 -2.1592492537313435 -0.1734597014925381
C -0.5287522388059701 -1.936549253731343 0.464840298507462
C -1.8068522388059702 -2.121249253731343 -1.5681597014925381
C 0.6114477611940299 -1.614449253731343 -0.2582597014925381
H -0.4544522388059702 -1.954049253731343 1.5506402985074619
C -0.6479522388059701 -1.8270492537313432 -2.2998597014925384
H -2.74345223880597 -2.290549253731343 -2.092259701492538
C 0.5698477611940298 -1.5506492537313434 -1.6506597014925382
H 1.5072477611940298 -1.351949253731343 0.2991402985074618
H -0.7173522388059701 -1.7640492537313435 -3.3840597014925375
C 1.7791477611940298 -1.082849253731343 -2.4255597014925376
H 1.4739477611940297 -0.9102492537313429 -3.464259701492538
H 2.1252477611940295 -0.1337492537313434 -2.0010597014925384
C 1.3965477611940298 2.0964507462686566 1.997440298507462
H 1.51704776119403 1.8448507462686567 3.057640298507462
H 2.1256477611940294 1.5207507462686571 1.4165402985074618
C 3.94864776119403 -1.4275492537313434 -3.522959701492538
H 4.81734776119403 -2.087049253731343 -3.615159701492538
H 3.4305477611940303 -1.3641492537313429 -4.484459701492538
H 4.26984776119403 -0.441449253731343 -3.176459701492538
C 2.60904776119403 -3.4296492537313434 -2.8992597014925376
H 1.9825477611940296 -3.869549253731343 -2.119359701492538
H 2.06294776119403 -3.373349253731343 -3.845759701492538
H 3.5215477611940305 -4.019849253731343 -3.0234597014925377
C 3.7281477611940304 -2.060049253731343 -1.156659701492538
H 3.9048477611940298 -1.032549253731343 -0.8295597014925382
H 3.12924776119403 -2.623249253731343 -0.4404597014925382
H 4.68244776119403 -2.5769492537313434 -1.3005597014925383
C 3.1110477611940297 3.755250746268656 2.588740298507462
H 3.40124776119403 4.809350746268656 2.534540298507462
H 2.9823477611940303 3.461750746268656 3.634840298507462
H 3.86514776119403 3.1392507462686563 2.091540298507462
C 1.99744776119403 3.9574507462686572 0.40494029850746194
H 2.67914776119403 3.230350746268657 -0.04295970149253803
H 1.03214776119403 3.981150746268657 -0.10175970149253821
H 2.4399477611940297 4.958250746268657 0.368240298507462
C 0.7418477611940297 4.4992507462686575 2.475440298507462
H -0.18475223880597014 4.424250746268656 1.901240298507462
H 0.57844776119403 4.189650746268656 3.511940298507462
H 1.1210477611940297 5.524350746268658 2.4432402985074617
N 3.00114776119403 -2.025349253731343 -2.490159701492538
N 1.7831477611940298 3.586450746268657 1.862540298507462
C -3.55075223880597 -3.8435492537313434 0.6444402985074619
H -2.62515223880597 -2.2736492537313433 1.7424402985074618
H -4.67195223880597 -1.3478492537313436 1.5102402985074619
H -4.83415223880597 -1.6757492537313432 -0.1945597014925382
H -3.7169522388059697 0.17335074626865676 -0.900559701492538
H -3.9132522388059705 -4.043149253731343 -0.34225970149253815
H -4.35435223880597 -3.9354492537313432 1.3449402985074619
H -2.78115223880597 -4.545049253731343 0.8904402985074619
H -5.24235223880597 1.138950746268657 1.5249402985074618
H -5.92805223880597 0.6501507462686567 -0.006059701492538094
H -4.89895223880597 2.059650746268657 0.08004029850746197
C 0.3993986812107533 -4.621245803146165 -0.5862722047243215
O -0.2563987033329036 -4.199707000199149 -1.5264904382401876
O 1.0949590274542775 -5.6432593475511865 -0.604036885590438
O 0.46897919411632594 -4.091047684218639 0.5284909500801013
O 0.323300208639161 -6.785077154234665 -2.9138136184082093
H 0.3005984831255535 -7.033074966752313 -3.8502692092106603
H -0.2572750622176725 -6.010953926851355 -2.8625541998086756
O 8.522580755243684 3.4308596803316913 -2.710502525523406
H 9.166395817218712 2.8947426829243468 -3.1973783700310436
H 8.742429666244407 4.341818213777351 -2.9570445117535944
O -1.5906884528214555 0.308888873584964 11.845966798583685
H -2.132538127224137 0.6528887091010334 11.119998203936076
H -2.237603164923346 0.05824019593210217 12.52245666543832
O -1.3766973312022075 -1.6999230126629885 8.623879117075099
H -1.1556446595056635 -1.2183396968194442 9.435162411083397
H -1.4510626086567577 -2.622105781156917 8.911994877320838
O 6.167626181236587 1.4243622373629734 3.1758512226819526
H 6.8734562735383715 1.5399286338546552 3.829621553687561
H 5.896444338268611 2.3296549053944458 2.961684144089209
O 0.721507244249438 -6.0589681196004745 8.215864578493152
H 0.7436051977651599 -6.088773430594821 7.247571915716577
H 1.4231966769258886 -6.670681880619332 8.484937354801652
O 0.6720796586499496 -2.276726825808269 3.664703086161063
H 1.407941023395449 -2.678035442880648 3.1784656928660318
H 0.7215209736514325 -1.3376512837691494 3.430919795451789
O 1.6587942661527046 8.219134432829286 1.1969999614188354
H 1.2052309702824608 8.21740525429316 0.34070287308972436
H 1.644282196558947 9.149450246412053 1.4676728842130031
O -1.599068494874159 -3.7527480935058124 -8.088407744752185
H -1.5501927649610159 -3.321143773910867 -8.954604160833691
H -1.8573650588444164 -3.039339047938733 -7.485670353308594
O -9.565211525489605 5.747368836952004 2.4843734437448974
H -8.948756952149461 5.7716415192617445 1.7371372342358073
H -10.066338845127792 6.5725530402954515 2.4012808185324923
O -2.869181313551578 10.634828673616456 0.9444835393498483
H -2.193741405156759 10.448266226154725 0.2751982935505035
H -2.9034270378383007 9.824471703333536 1.4746823279018084
O -2.5227804945734604 -3.6771681462965438 5.86235770119038
H -2.4855848694424347 -3.5419444572133045 4.903557202503697
H -1.9819921913643535 -2.9577024219141546 6.2213549530616685
O 3.6322378509790436 2.701622224434876 -8.245669794928677
H 4.0743816824965 2.5526365780843925 -7.396388059382344
H 4.220326951934722 2.283275546021252 -8.892275710689916
O 1.5091330633893794 -10.366489402681529 3.44084965442951
H 0.6237882699649839 -10.689657987597755 3.215696330271153
H 2.023735873149717 -11.174821250936885 3.584882690858118
O -3.7346003162811034 5.6170970076740945 2.309152766851137
H -3.754079552406368 5.668988196116637 1.3417359896439198
H -3.8964143158485927 6.52849505155298 2.595739192659675
O 7.780571083078393 0.06754181436924378 1.5596868941512436
H 7.842792584297634 0.13245176430026545 0.5948643508377194
H 8.2005910842802 0.8812480352424292 1.8765896063559737
O -7.005103654684948 -1.9418094279272426 -0.6500900573845363
H -7.870305591201099 -2.1151748278602174 -1.0505115903404758
H -7.219537013792169 -1.5654132269822552 0.21668914097925285
O 3.1763301076691093 -7.338534444202605 -7.649896997673313
H 2.453697862687168 -7.719562693389903 -8.171037543719793
H 3.2484414809541695 -6.429978530905242 -7.978968489229988
O -0.27902690302908795 1.2420559475937472 -9.56917059243263
H 0.21038311245284858 0.9532708925192073 -8.784283093735162
H -0.8134940067345571 0.4701454482968419 -9.808880918517863
O -1.5723333902325274 -1.6044517722040568 4.733768094299607
H -1.2929349375246166 -1.3129637302898998 3.8528943332274097
H -0.8542097924504635 -1.313055123326365 5.315445355013307
C 9.414636385011761 -8.861908265470147 -2.6136571374999757
O 9.889193368422632 -8.395811141096377 -3.608829181644343
O 8.94007940160089 -9.328005389843916 -1.6184850933556092
O 1.7859808742098926 6.462831755029596 5.6509281986633555
H 2.525254495727797 5.83821420306108 5.698832094127729
H 1.6123471170441714 6.547609165056299 4.701388281955438
O -8.956490602520123 -10.656534556790671 -6.009560617067283
H -8.578927254226858 -11.075808365930682 -6.797356750527461
H -8.925748666098762 -11.352822557929407 -5.336359386293537
O -7.405094094429853 2.309656774070786 -0.5403812129168477
H -7.459735325516899 2.387201838676404 -1.5047299339304672
H -8.285047135731993 2.575631380078483 -0.2339467201420239
O 0.7850570755466499 14.38594816080371 7.209937983051378
H 0.4926894537883304 15.221257703058676 6.815290673083121
H 1.051500467908581 13.84823598246328 6.449125603925582
O 8.661221385257843 -12.698021295490566 -4.183424925998396
H 8.472078881758854 -12.617744846719637 -5.130392804040129
H 9.036602003175073 -11.836841879376351 -3.945893140223827
O -10.381021326823635 -1.8264086651134643 12.547308572625278
H -10.631294199468284 -1.1826319645353767 13.226927882173637
H -9.458399729984677 -1.6083822416616564 12.346819640204693
O 13.036803169425635 -8.838372104087938 4.598894775339504
H 13.17903326908423 -7.894989166966004 4.7685019379191
H 12.419021968519807 -8.851450934095832 3.8524784864544213
O 9.64066795088429 -1.7545474865782502 13.75364688830247
H 8.969946675648126 -1.0990061363423882 13.997298003581093
H 9.172282185555584 -2.6009141967113347 13.810568862231182
O -22.55468785872593 -2.805135912995244 11.214200800252168
H -22.662414016444025 -2.222324608708148 11.98081244602757
H -21.604992415904395 -2.7698782791599816 11.024998766858396
O -5.000572871059708 -14.356499761077773 -6.663985073115535
H -5.494218348755052 -14.739122808849867 -7.404850177277239
H -5.0000164854963485 -13.405407778631186 -6.849418823174494
O -1.1874423745825853 21.171372854130176 -0.6003306547977845
H -0.9971396141727595 20.539410720463138 0.10915935774038044
H -0.3951981636711013 21.14322486920901 -1.1575727435905447
O 13.687555188825561 3.7824828242664275 7.029502693668666
H 12.943416726728897 4.370330833140414 7.228650941442293
H 14.0768430692449 3.595577977929029 7.89696074387871
O -12.516785608916557 -0.3053897405884225 5.537518091173495
H -12.730501113584555 -0.2956785874021941 4.5924261731738225
H -13.297903447871402 -0.703688306561868 5.950040961218312
O -1.0697288275255852 4.0334820766397215 9.540642573902694
H -1.499028471610159 4.40302638425776 10.326839862880444
H -1.0099660306219091 4.784816345808551 8.931637509573347
O 8.388671584871645 13.621254864646065 7.968662566798818
H 7.449112830255074 13.385078393025408 7.948232741146809
H 8.391141422370463 14.546968886453175 8.255035390286727
O -7.733595699930083 -4.178988406510707 9.590451758472232
H -7.6181498514873 -4.411618257303089 8.656897814933005
H -8.520156454905141 -3.6130710754139295 9.595109804990418
O 5.37019045307925 -11.022117579633889 13.27650945749772
H 5.22041941612166 -11.807681778513956 12.729312159600003
H 5.905871200966269 -11.349642658090474 14.014571381475115
O -4.64897759431796 13.645328763346907 -2.5799292789438266
H -5.004791971691097 14.353419477736676 -2.0222815174047413
H -4.12668984616918 14.113824373758794 -3.2482774782071084
O 12.46756316556369 5.440783051390581 10.613361389479376
H 11.518772583228195 5.585612098386854 10.746734306211474
H 12.730154996880088 4.897096302563265 11.371261246700291
O -1.7884568535672685 15.722857080705747 -13.895870565960976
H -1.7309902427233332 16.323209316314866 -13.137423376805891
H -1.703396611409019 16.307374098694087 -14.664028463262044