194

C -5.0710522388059704 1.0783507462686561 0.47044029850746183
C -3.8153522388059704 0.1782507462686569 0.19534029850746193
C -4.11845223880597 -1.3219492537313435 0.5608402985074619
C -2.96945223880597 -2.3874492537313436 0.7034402985074619
C -2.52015223880597 0.7359507462686565 0.7384402985074618
C -2.20305223880597 0.7852507462686571 2.097440298507462
C -1.5755522388059702 1.205650746268656 -0.18965970149253808
C -0.9533522388059701 1.2695507462686564 2.508640298507462
H -2.91125223880597 0.4298507462686567 2.840840298507462
C -0.32655223880597006 1.6562507462686575 0.21554029850746192
H -1.7850522388059702 1.178550746268657 -1.2573597014925382
C 0.004447761194029898 1.6956507462686563 1.569740298507462
H -0.7158522388059702 1.2676507462686573 3.5705402985074617
H 0.3943477611940298 1.9193507462686572 -0.5551597014925382
C -1.76045223880597 -2.1592492537313435 -0.1734597014925381
C -0.5287522388059701 -1.936549253731343 0.464840298507462
C -1.8068522388059702 -2.121249253731343 -1.5681597014925381
C 0.6114477611940299 -1.614449253731343 -0.2582597014925381
H -0.4544522388059702 -1.954049253731343 1.5506402985074619
C -0.6479522388059701 -1.8270492537313432 -2.2998597014925384
H -2.74345223880597 -2.290549253731343 -2.092259701492538
C 0.5698477611940298 -1.5506492537313434 -1.6506597014925382
H 1.5072477611940298 -1.351949253731343 0.2991402985074618
H -0.7173522388059701 -1.7640492537313435 -3.3840597014925375
C 1.7791477611940298 -1.082849253731343 -2.4255597014925376
H 1.4739477611940297 -0.9102492537313429 -3.464259701492538
H 2.1252477611940295 -0.1337492537313434 -2.0010597014925384
C 1.3965477611940298 2.0964507462686566 1.997440298507462
H 1.51704776119403 1.8448507462686567 3.057640298507462
H 2.1256477611940294 1.5207507462686571 1.4165402985074618
C 3.94864776119403 -1.4275492537313434 -3.522959701492538
H 4.81734776119403 -2.087049253731343 -3.615159701492538
H 3.4305477611940303 -1.3641492537313429 -4.484459701492538
H 4.26984776119403 -0.441449253731343 -3.176459701492538
C 2.60904776119403 -3.4296492537313434 -2.8992597014925376
H 1.9825477611940296 -3.869549253731343 -2.119359701492538
H 2.06294776119403 -3.373349253731343 -3.845759701492538
H 3.5215477611940305 -4.019849253731343 -3.0234597014925377
C 3.7281477611940304 -2.060049253731343 -1.156659701492538
H 3.9048477611940298 -1.032549253731343 -0.8295597014925382
H 3.12924776119403 -2.623249253731343 -0.4404597014925382
H 4.68244776119403 -2.5769492537313434 -1.3005597014925383
C 3.1110477611940297 3.755250746268656 2.588740298507462
H 3.40124776119403 4.809350746268656 2.534540298507462
H 2.9823477611940303 3.461750746268656 3.634840298507462
H 3.86514776119403 3.1392507462686563 2.091540298507462
C 1.99744776119403 3.9574507462686572 0.40494029850746194
H 2.67914776119403 3.230350746268657 -0.04295970149253803
H 1.03214776119403 3.981150746268657 -0.10175970149253821
H 2.4399477611940297 4.958250746268657 0.368240298507462
C 0.7418477611940297 4.4992507462686575 2.475440298507462
H -0.18475223880597014 4.424250746268656 1.901240298507462
H 0.57844776119403 4.189650746268656 3.511940298507462
H 1.1210477611940297 5.524350746268658 2.4432402985074617
N 3.00114776119403 -2.025349253731343 -2.490159701492538
N 1.7831477611940298 3.586450746268657 1.862540298507462
C -3.55075223880597 -3.8435492537313434 0.6444402985074619
H -2.62515223880597 -2.2736492537313433 1.7424402985074618
H -4.67195223880597 -1.3478492537313436 1.5102402985074619
H -4.83415223880597 -1.6757492537313432 -0.1945597014925382
H -3.7169522388059697 0.17335074626865676 -0.900559701492538
H -3.9132522388059705 -4.043149253731343 -0.34225970149253815
H -4.35435223880597 -3.9354492537313432 1.3449402985074619
H -2.78115223880597 -4.545049253731343 0.8904402985074619
H -5.24235223880597 1.138950746268657 1.5249402985074618
H -5.92805223880597 0.6501507462686567 -0.006059701492538094
H -4.89895223880597 2.059650746268657 0.08004029850746197
C 1.0780334444613946 -4.172428867254274 1.7515074701545443
O 1.289654855166757 -3.508896900250574 0.7481544884500629
O 1.6719333998987609 -4.045005144582195 2.8283907052046047
O 0.23721618678871592 -5.074029313442585 1.8452697175296744
O -4.722699538699884 -4.933957139936918 -4.165728526729409
H -4.83233415487008 -4.659502951105441 -5.088562480412341
H -4.950517039871897 -5.875768347405442 -4.172993507556747
O 0.3761604370613889 -8.79024664195788 -0.9982812475028111
H 1.0079610721715495 -8.997655013164549 -1.7031053971513574
H -0.48891246062246596 -8.879807166842962 -1.4255864526842683
O -8.07060098727278 3.2387472344059933 -2.4545062380249956
H -8.95999285645209 3.0215603597095178 -2.137048648105785
H -7.901028630380672 4.120635334937772 -2.090527477355493
O -1.9823894864310017 -6.229978803237784 -0.783998842648075
H -2.0121572495597815 -6.766305221470146 0.02249679297827839
H -2.9146634601137555 -6.061607832115891 -0.9876613045236928
O -0.5959899995076294 -4.371808961637067 -8.941039488788828
H -0.6273504273628663 -3.8680353873163624 -9.768200939946267
H -0.6818453254409835 -3.6959578913804942 -8.251970451505972
O 1.2687073700113967 5.904240377470321 -4.328155726284849
H 0.5632055565562541 6.23188356525555 -3.7503283389022144
H 1.8130924343655501 5.3547955184356395 -3.7444458729428973
O 1.4853574754529792 5.279700304568701 7.587385760635711
H 2.202282725622662 4.775708375449572 7.173891289146771
H 1.7819424176744372 5.401362974972794 8.501824118852184
O -3.065530204556609 -4.304086975091031 6.433701217737266
H -2.1204127060120204 -4.517599882933117 6.445212474386182
H -3.270433622561891 -4.099000220018843 7.3583178715369435
O 8.549740997842648 -2.938914875752418 2.3552210878954787
H 9.386515994041655 -3.1652697114388677 1.9221639888917716
H 8.821768204432093 -2.5174150636302546 3.184257306378195
O 3.6017566209918246 8.395446289211225 0.04268877395892834
H 3.1213768622578417 7.7711723502328685 0.607033255114833
H 2.929673914922982 9.045129498962034 -0.21261204364859054
O 3.1127491586172003 1.8870116728922062 -6.059396375757318
H 2.1750484074067638 1.6865281641113516 -6.199006621750586
H 3.325075887174165 1.4436831677057864 -5.224328030572644
O 3.3339108463751357 11.69209172185305 -0.08544658863138466
H 3.023879758775437 11.424288651082403 0.7926932617953922
H 4.213715358240801 11.292025691814146 -0.15511104735840203
O -5.272817171258197 -6.034549980648522 1.9191692020726232
H -4.882660379715539 -5.6140880290809605 2.700166501810041
H -6.120645013691399 -5.578946537992063 1.8070291247824637
O -2.0044624838416722 -5.985416452762982 -5.850598105137906
H -1.827522509113058 -6.730576983241609 -5.256969108154227
H -2.83690115133418 -5.615497098353341 -5.520193080363082
O 6.004567200042029 3.0142354042317976 5.841854940972613
H 6.541007963428623 2.2504516934036585 5.581407043398442
H 5.099106312967964 2.7515656522853122 5.618008726594482
O 6.309012695162914 0.7404483424705361 -2.0889757971432465
H 6.123610195113279 0.4065206916371942 -2.9795293294389036
H 5.430962474732065 0.8711462552305342 -1.7005072523400457
O -3.948873776092215 -1.2325577731552755 -7.809286483815503
H -4.213116981988454 -0.5976126558212653 -8.491919315586271
H -3.0377024662687617 -1.463546888285801 -8.044600778208828
O 7.213827589952354 -3.073940561259616 -4.81624117733559
H 7.707270170341662 -2.470232280241298 -4.240899463057327
H 7.216141653238872 -2.6304462936301802 -5.6777917701570075
O -0.7636187144745132 8.472240637643086 -7.826679363141037
H -1.3395105564429441 8.54625824800421 -8.60246112150523
H -1.1646089666338273 7.761264786355548 -7.3044896458359485
O 9.121248061640607 4.516490177291006 2.484293680927389
H 9.230940367532238 3.5651525336360916 2.336335434474908
H 10.026454932782375 4.861864795713872 2.4675952472585907
C -15.61402893743996 -0.31962809330844655 -9.904541292899719
O -16.802459626444634 -0.27017829275464367 -9.770356823019423
O -14.42559824843528 -0.36907789386224943 -10.038725762780015
O -3.3006033990765484 1.2738155231218427 11.944915349150417
H -3.451559190111869 1.8020010157300606 11.14666739804054
H -3.148848437506378 0.3781498740882894 11.607698177167528
O 10.058465637222561 5.19908575491565 -4.680599800006819
H 9.309688977407347 4.786069259550315 -4.22483862880845
H 10.54166829676043 5.652445777994121 -3.973534156951083
O -0.4766373676311364 -11.735172547306213 -5.138338277566593
H -0.3872611628355269 -11.68615426347715 -4.174711555870486
H -0.1600386404435925 -10.872908617739212 -5.446928792668562
O 0.11802207881348448 -8.07942532004096 -13.196356900174052
H 0.11686296579014055 -7.797561717535842 -14.123459334072182
H -0.27315799948420505 -7.329663831040628 -12.723284178222109
O -7.596175118349806 4.915340515591989 13.082727646421992
H -7.971106894648001 5.170424134933814 13.939072125685659
H -8.005867370136887 4.057738445559433 12.89396087868597
O 12.14399322157479 9.618113452657186 1.497059472033368
H 12.544179452798595 8.80371691937631 1.1570938505082191
H 12.732229338198543 10.318886623674015 1.1779087581340741
O -5.687730299581348 -2.908655996928747 -11.517322423813
H -5.342864742958069 -3.082010026083954 -10.628512272357376
H -6.550118607979956 -3.3504738258068434 -11.524057104416643
O -10.88246842777405 1.6838250988409396 -13.863288165931587
H -11.443791870720933 1.0213613336607072 -14.293433617054212
H -11.408394246967394 2.496774559476117 -13.901721894072162
O -19.66826110867241 -3.324376180663727 -8.168178874173718
H -19.420776195459958 -3.205064077406291 -7.238940908608106
H -19.58447974241812 -4.2789748470121465 -8.311998251082345
O -14.031091420384117 0.8145625160572738 16.29856147875947
H -13.688467700331257 1.4106829235443072 16.981362184042233
H -13.883951093761379 -0.07029367905793649 16.66508730670013
O -13.708203057560983 12.92251130803574 -13.11596362871121
H -13.87536696653235 13.496774543032773 -12.35356916298618
H -13.301982922829989 12.132345519398216 -12.729201204339383
O -14.589322745801264 5.5169334427714976 -6.696064915818332
H -13.995185925211551 5.47052368425924 -5.93198708625227
H -14.735531881085972 4.589444645999301 -6.935542190150072
O 5.23651270604221 3.1537015884419795 -13.104107464983189
H 4.389127926870035 3.1940824649582433 -12.635838548932698
H 5.037352065845784 3.5167752195728235 -13.980163697238865
O 3.185070954344844 3.1121521069342406 -17.937872516802862
H 2.8674110375452826 2.8409614008271653 -18.81223807827017
H 2.935487932490059 2.375881544936761 -17.359447137831857
O 9.042609218741383 -12.729017423544391 6.273025753032936
H 9.05414948405445 -12.622886490668552 5.309921187441322
H 9.688611086667688 -13.43198592330895 6.438793117958876
O -13.976214214588097 1.6650730420948912 8.897650222151103
H -14.892601184166073 1.8683044996900335 9.138272859347717
H -14.01903343404331 0.7587478219514523 8.557498705798182
O 5.168810977910719 -4.588456094377142 17.450022403841796
H 5.369707446300256 -5.441577774899393 17.036753285576832
H 5.9578898614911715 -4.0531767332631565 17.277417463724703
O 5.602351916473525 6.304021010651564 1.2424801478870782
H 5.469099673128923 6.237015774546728 0.2850244074592677
H 4.716287597944306 6.486018304080497 1.5899408692843198
O -1.1834986833464691 -10.01626124036313 3.9808198210872163
H -1.131129448868051 -10.028309858987619 3.013307727638568
H -0.554080450524387 -10.698955515311425 4.257809278366643
O 21.78372064200396 11.00142903788854 -7.605991427732781
H 21.638431991876857 10.089489041435504 -7.312352179822216
H 22.295993930132255 11.400163687440603 -6.886582849929581