194

C -5.0710522388059704 1.0783507462686561 0.47044029850746183
C -3.8153522388059704 0.1782507462686569 0.19534029850746193
C -4.11845223880597 -1.3219492537313435 0.5608402985074619
C -2.96945223880597 -2.3874492537313436 0.7034402985074619
C -2.52015223880597 0.7359507462686565 0.7384402985074618
C -2.20305223880597 0.7852507462686571 2.097440298507462
C -1.5755522388059702 1.205650746268656 -0.18965970149253808
C -0.9533522388059701 1.2695507462686564 2.508640298507462
H -2.91125223880597 0.4298507462686567 2.840840298507462
C -0.32655223880597006 1.6562507462686575 0.21554029850746192
H -1.7850522388059702 1.178550746268657 -1.2573597014925382
C 0.004447761194029898 1.6956507462686563 1.569740298507462
H -0.7158522388059702 1.2676507462686573 3.5705402985074617
H 0.3943477611940298 1.9193507462686572 -0.5551597014925382
C -1.76045223880597 -2.1592492537313435 -0.1734597014925381
C -0.5287522388059701 -1.936549253731343 0.464840298507462
C -1.8068522388059702 -2.121249253731343 -1.5681597014925381
C 0.6114477611940299 -1.614449253731343 -0.2582597014925381
H -0.4544522388059702 -1.954049253731343 1.5506402985074619
C -0.6479522388059701 -1.8270492537313432 -2.2998597014925384
H -2.74345223880597 -2.290549253731343 -2.092259701492538
C 0.5698477611940298 -1.5506492537313434 -1.6506597014925382
H 1.5072477611940298 -1.351949253731343 0.2991402985074618
H -0.7173522388059701 -1.7640492537313435 -3.3840597014925375
C 1.7791477611940298 -1.082849253731343 -2.4255597014925376
H 1.4739477611940297 -0.9102492537313429 -3.464259701492538
H 2.1252477611940295 -0.1337492537313434 -2.0010597014925384
C 1.3965477611940298 2.0964507462686566 1.997440298507462
H 1.51704776119403 1.8448507462686567 3.057640298507462
H 2.1256477611940294 1.5207507462686571 1.4165402985074618
C 3.94864776119403 -1.4275492537313434 -3.522959701492538
H 4.81734776119403 -2.087049253731343 -3.615159701492538
H 3.4305477611940303 -1.3641492537313429 -4.484459701492538
H 4.26984776119403 -0.441449253731343 -3.176459701492538
C 2.60904776119403 -3.4296492537313434 -2.8992597014925376
H 1.9825477611940296 -3.869549253731343 -2.119359701492538
H 2.06294776119403 -3.373349253731343 -3.845759701492538
H 3.5215477611940305 -4.019849253731343 -3.0234597014925377
C 3.7281477611940304 -2.060049253731343 -1.156659701492538
H 3.9048477611940298 -1.032549253731343 -0.8295597014925382
H 3.12924776119403 -2.623249253731343 -0.4404597014925382
H 4.68244776119403 -2.5769492537313434 -1.3005597014925383
C 3.1110477611940297 3.755250746268656 2.588740298507462
H 3.40124776119403 4.809350746268656 2.534540298507462
H 2.9823477611940303 3.461750746268656 3.634840298507462
H 3.86514776119403 3.1392507462686563 2.091540298507462
C 1.99744776119403 3.9574507462686572 0.40494029850746194
H 2.67914776119403 3.230350746268657 -0.04295970149253803
H 1.03214776119403 3.981150746268657 -0.10175970149253821
H 2.4399477611940297 4.958250746268657 0.368240298507462
C 0.7418477611940297 4.4992507462686575 2.475440298507462
H -0.18475223880597014 4.424250746268656 1.901240298507462
H 0.57844776119403 4.189650746268656 3.511940298507462
H 1.1210477611940297 5.524350746268658 2.4432402985074617
N 3.00114776119403 -2.025349253731343 -2.490159701492538
N 1.7831477611940298 3.586450746268657 1.862540298507462
C -3.55075223880597 -3.8435492537313434 0.6444402985074619
H -2.62515223880597 -2.2736492537313433 1.7424402985074618
H -4.67195223880597 -1.3478492537313436 1.5102402985074619
H -4.83415223880597 -1.6757492537313432 -0.1945597014925382
H -3.7169522388059697 0.17335074626865676 -0.900559701492538
H -3.9132522388059705 -4.043149253731343 -0.34225970149253815
H -4.35435223880597 -3.9354492537313432 1.3449402985074619
H -2.78115223880597 -4.545049253731343 0.8904402985074619
H -5.24235223880597 1.138950746268657 1.5249402985074618
H -5.92805223880597 0.6501507462686567 -0.006059701492538094
H -4.89895223880597 2.059650746268657 0.08004029850746197
C -0.12575899492623233 1.5927079759375111 -4.027231450545329
O 0.6002931463304697 2.088931532142972 -3.179654923591353
O 0.2433938437559735 1.1984565037781034 -5.1394020410992285
O -1.3420372704069226 1.4079968863465286 -3.9039539003756776
O 8.938245020264846 -3.359692518463445 0.03759817020214293
H 8.293550125859872 -2.7387997457260473 -0.3336537857396764
H 9.63846564649716 -2.7886162852385623 0.38763381802176966
O 6.311196199977495 -0.30241013614334444 5.386893549928241
H 6.78255071415634 -0.20201844956458637 6.227556257635142
H 5.617855861136798 -0.9502505751206062 5.583219514746996
O -6.067326299364979 1.029657157444678 -4.168826677272012
H -5.411350709479695 0.32997597393273814 -4.030589114308872
H -6.110689613030372 1.4822220566721742 -3.313100915526368
O 1.7509769553385803 -0.839632196122112 7.066347639369259
H 1.5898154328815968 -0.8371019330058784 6.1108436266367585
H 0.8654576727624834 -0.913213127791321 7.452874987665089
O 0.9924804428449188 5.177234512769071 6.613097876210583
H 0.5231447038791286 6.022492612209662 6.678136836530658
H 1.1093180778503227 5.047121733913957 5.660007336899158
O 0.14995888770877602 -6.128613105653326 1.6316939714672483
H 0.25726771889588207 -5.17992256661973 1.4660484680649362
H 0.14517388538123838 -6.5217781730735 0.7460528038303691
O 3.3038138688805967 6.313491795026498 -7.612106591294976
H 2.797818935329206 6.5285090111655295 -6.814169199713315
H 3.759211588766764 5.488781197734461 -7.385330728962386
O -0.8269601496696171 7.447047018307233 4.459004272401055
H -0.4118487218738516 7.226078664974363 3.611760006419442
H -0.9786506537940949 8.402472182239375 4.403194852195346
O -4.228100093170747 -5.505099059540878 6.9486405454651905
H -4.335229298164657 -5.633675752048921 7.903082122766318
H -4.56639498640177 -6.326858593032325 6.562337842096795
O 7.607470553729975 6.128696731171215 -5.692750913934938
H 7.478252339056179 6.249527346384252 -6.645468066254427
H 7.150825793631618 5.2964531479281955 -5.498307797508738
O 0.016888943470650286 8.258818585465928 -3.8360476820892258
H 0.3668808421082552 8.81503768872738 -4.548152545824246
H 0.7183565272093628 7.608620820680142 -3.6806512859555385
O -1.9139572035679473 -7.920060919298802 -5.27244987402921
H -1.9001912598846316 -8.135892799922388 -6.21701033000913
H -1.142190096234232 -8.384350788401962 -4.914997228513864
O -4.146895348181364 -1.9254825894393952 -9.136857624605335
H -3.274332207299887 -2.2649027796386814 -9.386647249209986
H -3.9828668417864614 -1.4414804246869144 -8.313572438351647
O -5.811403582734899 -1.025771972684106 3.8132599887685137
H -6.002571413072074 -1.9647022906892353 3.9575931986509407
H -5.102617595872341 -0.831448902015908 4.444784266475516
O 8.956335259073152 0.942746254936782 2.543636447266694
H 8.415605882620792 1.3143789132314387 1.8305668394230468
H 8.587283942366081 0.05722073612702605 2.6800462177140094
O 7.195278384042743 -6.341240424396406 3.236094921265333
H 7.229788833130821 -6.5498011741071105 4.181758074551877
H 6.614072840302007 -7.023142495657597 2.8670805239381667
O 0.7754580322429913 -2.3627429626588485 4.081093237840447
H 1.2882862881050348 -1.5602152317047353 3.902420973794968
H 1.1266928255212856 -3.010013257058454 3.4513018197672873
O -8.678348053626852 -5.790062062708321 -6.027685668652163
H -7.7900008139757215 -6.0093525900581515 -5.708752755143932
H -8.717946645631942 -4.8239516995052405 -5.964245445427248
O 5.783228087467675 2.759828698480352 -7.725706651175262
H 5.763756736306184 2.37921396230481 -6.834796641134982
H 5.485195548605775 2.035512839912388 -8.296237182441102
O -8.881547476348558 4.915787974306829 -4.930675528465109
H -8.238597052716926 4.244483765286859 -5.204414032523228
H -9.119813000486289 5.362376330090033 -5.756962600121339
C -20.953978649061153 -2.897551971025653 -3.3963173217316944
O -20.169576562949015 -2.306789921383445 -4.080811167800057
O -21.73838073517329 -3.4883140206678616 -2.7118234756633317
O -4.755876538288215 9.433100057050822 -6.3992311894637215
H -4.535731183436882 8.695014131469009 -5.811240929259165
H -5.722418631124443 9.402751004836846 -6.46117682777247
O 6.871781617868608 -4.416848939039713 19.320098541743295
H 6.031781122048151 -4.444779834612236 18.83782643079979
H 7.025568386172499 -3.4715959415485558 19.467775029135925
O 11.627263805300657 -4.080180345881674 8.525654006018382
H 11.75537370066198 -4.196655269592044 9.479063049271685
H 11.145613053313351 -3.2423496918884944 8.454842335797839
O -2.7150442385738462 1.689952024208722 6.392385711801
H -3.564019853727393 1.4341547915256838 6.783250826036536
H -2.7585550445832356 1.3411860251551249 5.4893735125674805
O -3.1788323445676747 -16.09631769065393 -5.66963960141938
H -3.81018408141753 -16.233040428606166 -4.947372868000544
H -2.4658613969859022 -15.58131276347161 -5.262940330234532
O 11.569159359099254 -4.990160714865883 -5.637178305401248
H 11.42767798789463 -5.096162441165481 -6.589918570386184
H 12.5071713593393 -5.200342329620504 -5.515034453632886
O 7.604380923277369 9.489342417968214 5.293930744877148
H 7.4008747789454095 8.76492111408231 4.683384775604248
H 8.14443707600116 10.096049436054106 4.765529485973934
O -3.8009185000476493 2.0225246995965183 15.1643222910058
H -4.362622389160423 1.5422427370891212 15.79104817554036
H -4.2436502769843605 2.8783103784753203 15.061456408341005
O 3.605353021714895 -18.829935239595038 -6.609846690968912
H 2.9567145784372695 -19.46188490902054 -6.954629437224259
H 3.3576424274251266 -17.990212149271095 -7.0251375978684205
O 12.033540642722352 1.309119314628071 -1.07989399325188
H 12.001717158429727 0.6783823429376912 -0.34496168664784577
H 12.290768972113433 2.1440700076170436 -0.6607843761635728
O -11.834770477523378 -6.790784552570829 -1.7173053664246565
H -12.044118826488942 -6.9054630542376945 -2.656448309187278
H -11.676107197383695 -7.6928665507382945 -1.4010207218123911
O 0.5219861978041593 -15.397058869798856 -14.752362072537
H -0.07201211978373578 -15.194431632750936 -14.01406974668695
H -0.074259635857445 -15.513850533217969 -15.507221369026734
O -10.768678769168098 -7.668026823984059 3.623308848245431
H -11.471325826712459 -7.887956206357617 2.9933203275618876
H -11.244756991013212 -7.4553297349749865 4.440053250927115
O 9.958236142376801 15.128507249140021 -6.528622582803307
H 10.463307431803221 15.624525702045233 -5.866930778505675
H 10.417720395330022 14.277168659150881 -6.583928737825352
O -3.9858808858827306 -8.705731180567756 -11.986965823700178
H -3.8657893921159814 -8.0369931632365 -12.677860066114118
H -3.7184900497843825 -8.252360471874633 -11.17338172505412
O 12.638672211793816 6.582415487686533 12.197208801754865
H 11.817121578379162 6.0852960067853035 12.0672313600795
H 12.805246684820803 6.989158502853869 11.333626142799531
O -3.5962643180940677 -0.0372053523889857 19.020235282442435
H -4.231603708419154 0.4270700506512721 19.585708151935883
H -2.9734417685846126 -0.4359980049170744 19.64634903920885
O 13.536728352364015 -6.519081855019018 -12.468322612331502
H 13.031140528318831 -7.242694495598079 -12.867988792376119
H 13.148345637477915 -6.42165497141169 -11.585923148693709
O 5.955621040893158 -9.872842504313144 10.973361246777408
H 6.130608219228134 -9.584081055247557 11.881636353698163
H 6.079079972671524 -10.833416552646423 11.005256922546378
O -8.827983004858375 16.250812573306597 -3.2848295120400994
H -8.471463639703874 15.981040010889977 -2.4251295273146134
H -9.681125030077439 16.65577610292596 -3.0677692236791465