194

C -5.0710522388059704 1.0783507462686561 0.47044029850746183
C -3.8153522388059704 0.1782507462686569 0.19534029850746193
C -4.11845223880597 -1.3219492537313435 0.5608402985074619
C -2.96945223880597 -2.3874492537313436 0.7034402985074619
C -2.52015223880597 0.7359507462686565 0.7384402985074618
C -2.20305223880597 0.7852507462686571 2.097440298507462
C -1.5755522388059702 1.205650746268656 -0.18965970149253808
C -0.9533522388059701 1.2695507462686564 2.508640298507462
H -2.91125223880597 0.4298507462686567 2.840840298507462
C -0.32655223880597006 1.6562507462686575 0.21554029850746192
H -1.7850522388059702 1.178550746268657 -1.2573597014925382
C 0.004447761194029898 1.6956507462686563 1.569740298507462
H -0.7158522388059702 1.2676507462686573 3.5705402985074617
H 0.3943477611940298 1.9193507462686572 -0.5551597014925382
C -1.76045223880597 -2.1592492537313435 -0.1734597014925381
C -0.5287522388059701 -1.936549253731343 0.464840298507462
C -1.8068522388059702 -2.121249253731343 -1.5681597014925381
C 0.6114477611940299 -1.614449253731343 -0.2582597014925381
H -0.4544522388059702 -1.954049253731343 1.5506402985074619
C -0.6479522388059701 -1.8270492537313432 -2.2998597014925384
H -2.74345223880597 -2.290549253731343 -2.092259701492538
C 0.5698477611940298 -1.5506492537313434 -1.6506597014925382
H 1.5072477611940298 -1.351949253731343 0.2991402985074618
H -0.7173522388059701 -1.7640492537313435 -3.3840597014925375
C 1.7791477611940298 -1.082849253731343 -2.4255597014925376
H 1.4739477611940297 -0.9102492537313429 -3.464259701492538
H 2.1252477611940295 -0.1337492537313434 -2.0010597014925384
C 1.3965477611940298 2.0964507462686566 1.997440298507462
H 1.51704776119403 1.8448507462686567 3.057640298507462
H 2.1256477611940294 1.5207507462686571 1.4165402985074618
C 3.94864776119403 -1.4275492537313434 -3.522959701492538
H 4.81734776119403 -2.087049253731343 -3.615159701492538
H 3.4305477611940303 -1.3641492537313429 -4.484459701492538
H 4.26984776119403 -0.441449253731343 -3.176459701492538
C 2.60904776119403 -3.4296492537313434 -2.8992597014925376
H 1.9825477611940296 -3.869549253731343 -2.119359701492538
H 2.06294776119403 -3.373349253731343 -3.845759701492538
H 3.5215477611940305 -4.019849253731343 -3.0234597014925377
C 3.7281477611940304 -2.060049253731343 -1.156659701492538
H 3.9048477611940298 -1.032549253731343 -0.8295597014925382
H 3.12924776119403 -2.623249253731343 -0.4404597014925382
H 4.68244776119403 -2.5769492537313434 -1.3005597014925383
C 3.1110477611940297 3.755250746268656 2.588740298507462
H 3.40124776119403 4.809350746268656 2.534540298507462
H 2.9823477611940303 3.461750746268656 3.634840298507462
H 3.86514776119403 3.1392507462686563 2.091540298507462
C 1.99744776119403 3.9574507462686572 0.40494029850746194
H 2.67914776119403 3.230350746268657 -0.04295970149253803
H 1.03214776119403 3.981150746268657 -0.10175970149253821
H 2.4399477611940297 4.958250746268657 0.368240298507462
C 0.7418477611940297 4.4992507462686575 2.475440298507462
H -0.18475223880597014 4.424250746268656 1.901240298507462
H 0.57844776119403 4.189650746268656 3.511940298507462
H 1.1210477611940297 5.524350746268658 2.4432402985074617
N 3.00114776119403 -2.025349253731343 -2.490159701492538
N 1.7831477611940298 3.586450746268657 1.862540298507462
C -3.55075223880597 -3.8435492537313434 0.6444402985074619
H -2.62515223880597 -2.2736492537313433 1.7424402985074618
H -4.67195223880597 -1.3478492537313436 1.5102402985074619
H -4.83415223880597 -1.6757492537313432 -0.1945597014925382
H -3.7169522388059697 0.17335074626865676 -0.900559701492538
H -3.9132522388059705 -4.043149253731343 -0.34225970149253815
H -4.35435223880597 -3.9354492537313432 1.3449402985074619
H -2.78115223880597 -4.545049253731343 0.8904402985074619
H -5.24235223880597 1.138950746268657 1.5249402985074618
H -5.92805223880597 0.6501507462686567 -0.006059701492538094
H -4.89895223880597 2.059650746268657 0.08004029850746197
C 3.549326944796258 0.14065643262475613 3.129311615129722
O 3.9375464385792944 0.3934276301254789 4.259430124384788
O 4.035412899476755 0.6001477658553163 2.08949450455289
O 2.610279650616879 -0.6137617687165055 2.850579232404997
O 6.526880974742778 -1.6817945011529907 -2.175543644106018
H 6.624577121581114 -1.3457781183186395 -1.2719310001817188
H 7.353693466210158 -1.4257068444447807 -2.6111606322219565
O -4.5957399196549185 4.751084576640183 -3.2757545827610084
H -4.543313202410435 4.9340745373407096 -2.3256317114955136
H -3.955371571778111 4.036754718850141 -3.412221346506569
O 4.356154082126524 9.186589500393755 6.016661846960661
H 3.9006767267884666 8.374904731190863 6.286245917555152
H 3.7370386984338975 9.892735101587716 6.255443077147521
O 4.648800216206426 -0.9424698540859953 7.829696797487285
H 4.847946352712746 -0.600868264888978 6.945040634069724
H 3.8785932247304435 -1.5141083439073322 7.691955839394581
O -0.31895011067495316 -5.182801174895413 -7.391388297091482
H -0.3138398944518694 -5.04125531647362 -6.432792442440634
H 0.09479503712357557 -6.0520404771228185 -7.501841601416826
O -3.4620464210889463 7.942058035481074 -4.103242647295774
H -3.05928084219355 7.683182123704199 -3.260787599439362
H -4.381350699715459 8.142306741846028 -3.8714193456236843
O 0.5406285593385328 0.4926076151794787 6.998462925167153
H -0.047457957221836614 0.8928657897587261 7.656425689784103
H 0.7043144088782624 1.2075172904770932 6.365159646219131
O -6.832257257820048 5.169397020634838 5.674438006475006
H -7.180353874968443 6.073275031179812 5.702733661319918
H -6.114047792584937 5.215380328764432 5.025575429560484
O 7.977909146098828 2.847439207515391 7.231729652446544
H 7.808597897065471 2.836162821804743 6.277699306505665
H 7.4084844796021745 2.1444160540601067 7.578826093210438
O 3.2461585508339246 5.645853523880857 5.615080064704421
H 2.9773830214449237 6.128847483611599 6.410971958472214
H 2.407668083695653 5.394614068433835 5.199418643779979
O -1.4063475536000807 -7.553316586135294 -0.7037328504063021
H -1.3596517817620848 -7.150216643271138 -1.5836744949801733
H -1.4807324015995196 -6.796470466670751 -0.10322240908195401
O 6.659598602398889 -8.622816150963166 -2.9386209177537594
H 6.71903982305631 -8.504611465049843 -3.8985489100609363
H 5.888383431128244 -8.093810038107293 -2.6849643852869054
O -6.1162851640350855 10.759410076759849 6.670147080509848
H -5.821216538838202 10.745382577739633 5.747268381765718
H -6.934996915090321 10.241137065333778 6.66201697525698
O 2.7307905557765615 1.753080234818757 -10.452214954133586
H 3.4756743491221074 1.5199294947589292 -11.02645899957133
H 2.8721939890057113 2.691138866061602 -10.254697821403772
O -0.03787339781628818 5.288229759998484 -5.479557442091652
H -0.5115290823664504 4.5012166725895915 -5.788147865858238
H -0.1765618403353303 5.283847296079669 -4.52054323248804
O -2.4742112804840386 7.58685527818313 7.891578866788409
H -3.37484558332362 7.367150437977935 7.609523920653666
H -2.599477027472339 8.056482074328816 8.729863489857092
O 7.828842424749196 0.7635940425436851 2.613527994228625
H 7.831568623536348 1.371800760188516 3.3678783858583206
H 7.146145036285376 0.11397603776570486 2.8390998629378195
O 0.023383260502904513 -6.035324127598253 4.426125549650592
H 0.29118420939587475 -5.705838561277526 3.5550978404137754
H 0.25690786966812773 -6.975472189293699 4.402677238314264
O -4.24071502829976 -1.4931559320940442 4.4637786191950335
H -5.040682940074804 -0.9685720470951891 4.309407492912352
H -4.577026007524873 -2.3800669534694303 4.661883918759466
O 0.13415638131433427 6.457756861678032 -0.5638231378550428
H 0.6823788000202704 6.530535355131646 -1.359513295780121
H -0.49133019729282523 7.193657516070642 -0.6424279159975743
C -16.682966288887535 2.0694577999610018 13.091828757588551
O -16.28595921724083 1.3927720626336186 12.187782268042685
O -17.07997336053424 2.746143537288385 13.995875247134416
O -2.8982265445745696 7.30433261008779 -20.51331160086484
H -2.55609947420621 7.654767290907523 -19.67718244869997
H -3.7791971241297952 7.700503682623078 -20.59013128287648
O 2.346666872937055 -10.300110659767059 -13.162628149448622
H 1.87021178691825 -10.898674117149957 -13.757337906719044
H 1.6633668019161374 -9.982751848043971 -12.553246215137705
O -13.755848677653317 5.521236313668232 16.46145158269604
H -13.732387043885126 5.5395580307911265 15.49290565021653
H -13.521609849823562 4.607693460713506 16.68401297119881
O -3.993195376942453 15.34826870322144 5.25942994172592
H -3.721497179923464 14.699256374364841 4.59314888719355
H -4.719886556369831 15.828905651387467 4.835319109395394
O 13.81922028833547 -6.677650665057001 -13.069954489893945
H 14.455619752459048 -6.619965892079449 -12.341507137005797
H 13.080995650712946 -6.120709160016125 -12.7804678949195
O -9.933686860571276 -0.23365485426931087 -2.981603972445214
H -10.238098597534735 -0.3074165969054864 -2.064619754139269
H -9.062310480178025 0.18343861686186658 -2.9061176536019864
O -4.840299426704037 -3.638569452280709 13.753041795087466
H -5.068655947272632 -3.8111653144355975 12.827281931634305
H -4.07030620286209 -4.204510874395475 13.913611674804052
O 7.856274998511103 9.559071499261858 3.3536656615928173
H 7.513616279917213 9.006109826818491 4.071847914422994
H 7.224295007149367 9.423274141164645 2.6317776423320463
O 9.58187411186256 -8.136861060907098 -13.688132039467245
H 8.7257968978372 -8.438601206551095 -13.348938812775854
H 10.114719943837088 -8.00022305222857 -12.890405696520155
O -6.497816921745708 12.988168823084107 -1.7109424375235256
H -6.2744367701369 13.917962454604522 -1.5542501672888291
H -6.730501575918311 12.652084205957442 -0.8323828629109675
O 5.064126478056115 13.082731266280218 15.215520489898553
H 5.1443145293472305 12.934069235234144 16.16968862699777
H 5.772387960542829 13.71339981396157 15.01656119835575
O 0.5738852426611616 8.377127232353475 -7.165759313884933
H 0.8967858588474478 7.584173369444523 -6.711967819623208
H 1.3148677607200934 8.64102242256528 -7.731679962751997
O 3.0852724067149815 -12.634728148621612 4.825832253277104
H 4.0033460652179205 -12.826455705317262 5.069448054214862
H 2.7571605157850896 -12.092007914704748 5.558470826536547
O 9.38693039862235 -12.620893797343564 -7.018194136022848
H 9.679027702602646 -12.59794265736517 -7.941838963367829
H 8.504259170772643 -12.221778306866543 -7.041864224480158
O -2.966934004121549 -7.023979137357745 -10.308779648587324
H -2.0773832263520533 -7.0353554726535705 -10.692885558024974
H -2.846124641544207 -7.40754925116842 -9.427166916144715
O -0.45082899257719955 -11.57400061310883 -12.185261911171734
H -0.8219282197275426 -11.75630506874156 -11.308895660130041
H -1.035134403268744 -12.053853107327717 -12.791307053985784
O 13.037051259910482 -2.837124659673652 -2.8213973361762754
H 12.361032813588764 -2.1488496167223454 -2.9121931641814527
H 13.81889619319885 -2.454945618722486 -3.2475658770717186
O 11.277248055693535 12.498252589995342 1.1241515187059519
H 11.054209898244416 12.494746294626664 2.0671303324204975
H 12.20933859402567 12.762459739304624 1.1050791589783746
O -15.318823724797786 8.177774697471682 8.591849946467228
H -15.121337224521188 8.430918218958192 7.677582591347342
H -16.03847829238755 7.534538593442029 8.506371515737902
O -4.203419918993732 15.915211609410411 -18.591882060788592
H -5.089330852924869 15.991653057424783 -18.97696111639501
H -4.284652782556825 16.349986597521507 -17.729713935716493