194

C -5.0710522388059704 1.0783507462686561 0.47044029850746183
C -3.8153522388059704 0.1782507462686569 0.19534029850746193
C -4.11845223880597 -1.3219492537313435 0.5608402985074619
C -2.96945223880597 -2.3874492537313436 0.7034402985074619
C -2.52015223880597 0.7359507462686565 0.7384402985074618
C -2.20305223880597 0.7852507462686571 2.097440298507462
C -1.5755522388059702 1.205650746268656 -0.18965970149253808
C -0.9533522388059701 1.2695507462686564 2.508640298507462
H -2.91125223880597 0.4298507462686567 2.840840298507462
C -0.32655223880597006 1.6562507462686575 0.21554029850746192
H -1.7850522388059702 1.178550746268657 -1.2573597014925382
C 0.004447761194029898 1.6956507462686563 1.569740298507462
H -0.7158522388059702 1.2676507462686573 3.5705402985074617
H 0.3943477611940298 1.9193507462686572 -0.5551597014925382
C -1.76045223880597 -2.1592492537313435 -0.1734597014925381
C -0.5287522388059701 -1.936549253731343 0.464840298507462
C -1.8068522388059702 -2.121249253731343 -1.5681597014925381
C 0.6114477611940299 -1.614449253731343 -0.2582597014925381
H -0.4544522388059702 -1.954049253731343 1.5506402985074619
C -0.6479522388059701 -1.8270492537313432 -2.2998597014925384
H -2.74345223880597 -2.290549253731343 -2.092259701492538
C 0.5698477611940298 -1.5506492537313434 -1.6506597014925382
H 1.5072477611940298 -1.351949253731343 0.2991402985074618
H -0.7173522388059701 -1.7640492537313435 -3.3840597014925375
C 1.7791477611940298 -1.082849253731343 -2.4255597014925376
H 1.4739477611940297 -0.9102492537313429 -3.464259701492538
H 2.1252477611940295 -0.1337492537313434 -2.0010597014925384
C 1.3965477611940298 2.0964507462686566 1.997440298507462
H 1.51704776119403 1.8448507462686567 3.057640298507462
H 2.1256477611940294 1.5207507462686571 1.4165402985074618
C 3.94864776119403 -1.4275492537313434 -3.522959701492538
H 4.81734776119403 -2.087049253731343 -3.615159701492538
H 3.4305477611940303 -1.3641492537313429 -4.484459701492538
H 4.26984776119403 -0.441449253731343 -3.176459701492538
C 2.60904776119403 -3.4296492537313434 -2.8992597014925376
H 1.9825477611940296 -3.869549253731343 -2.119359701492538
H 2.06294776119403 -3.373349253731343 -3.845759701492538
H 3.5215477611940305 -4.019849253731343 -3.0234597014925377
C 3.7281477611940304 -2.060049253731343 -1.156659701492538
H 3.9048477611940298 -1.032549253731343 -0.8295597014925382
H 3.12924776119403 -2.623249253731343 -0.4404597014925382
H 4.68244776119403 -2.5769492537313434 -1.3005597014925383
C 3.1110477611940297 3.755250746268656 2.588740298507462
H 3.40124776119403 4.809350746268656 2.534540298507462
H 2.9823477611940303 3.461750746268656 3.634840298507462
H 3.86514776119403 3.1392507462686563 2.091540298507462
C 1.99744776119403 3.9574507462686572 0.40494029850746194
H 2.67914776119403 3.230350746268657 -0.04295970149253803
H 1.03214776119403 3.981150746268657 -0.10175970149253821
H 2.4399477611940297 4.958250746268657 0.368240298507462
C 0.7418477611940297 4.4992507462686575 2.475440298507462
H -0.18475223880597014 4.424250746268656 1.901240298507462
H 0.57844776119403 4.189650746268656 3.511940298507462
H 1.1210477611940297 5.524350746268658 2.4432402985074617
N 3.00114776119403 -2.025349253731343 -2.490159701492538
N 1.7831477611940298 3.586450746268657 1.862540298507462
C -3.55075223880597 -3.8435492537313434 0.6444402985074619
H -2.62515223880597 -2.2736492537313433 1.7424402985074618
H -4.67195223880597 -1.3478492537313436 1.5102402985074619
H -4.83415223880597 -1.6757492537313432 -0.1945597014925382
H -3.7169522388059697 0.17335074626865676 -0.900559701492538
H -3.9132522388059705 -4.043149253731343 -0.34225970149253815
H -4.35435223880597 -3.9354492537313432 1.3449402985074619
H -2.78115223880597 -4.545049253731343 0.8904402985074619
H -5.24235223880597 1.138950746268657 1.5249402985074618
H -5.92805223880597 0.6501507462686567 -0.006059701492538094
H -4.89895223880597 2.059650746268657 0.08004029850746197
C -1.139033751964909 2.1011100812695656 -3.38791760760993
O -1.7384655545213463 3.1514768899616556 -3.217076804866749
O -0.26466767593901497 1.6498056043983294 -2.6392924020824506
O -1.3140259375356091 1.3269069821313368 -4.335881573525276
O -0.3104531200120433 -6.5547228972837175 -7.89379068741652
H 0.31588539337498944 -6.899174194204291 -8.548023618105475
H 0.11650777065966178 -5.750767189760266 -7.561643788473765
O 3.5827947510690255 7.318908108015211 0.6457739760312511
H 4.429008536795857 6.950408366167618 0.3506510762011601
H 3.703077877367628 8.276849215087074 0.563053064468523
O -5.411804670993088 -3.4440877447554854 -7.393167203083776
H -6.143668763614872 -4.0770380739581435 -7.341050146440656
H -4.738153892410338 -3.9075030224103107 -7.913169946587072
O 1.3152854923479005 6.7376551958568465 5.666735511033387
H 1.4308002682978223 6.4755092673007155 4.741044846945925
H 2.193188818906756 7.049735796321151 5.932918516371319
O -3.1193739597470973 2.8460253766468844 -11.282579070025529
H -2.184254158689343 2.680167302317585 -11.090200761088461
H -3.1567808508284365 2.880170125280716 -12.250255051405848
O -9.860411387638223 1.2611883629404312 6.98970833891009
H -9.724966644134259 1.4398655756762127 7.932415362330473
H -9.67704231429596 2.110984659152285 6.561708359720584
O 2.077143916104035 8.56617960270634 2.6544462666654765
H 2.0691962598733364 8.550010527305533 1.6856104948955013
H 2.3640086251504933 9.4660127329466 2.8711740238303225
O -5.845612095287134 3.283933189893289 5.769767197995182
H -6.578144799011302 3.1570249020582355 6.391263361582165
H -6.222120066548449 3.039225254891252 4.9110928019499
O -5.682814047884404 -5.189415393125371 -2.2308452489446493
H -6.225012625517747 -5.187660862406817 -3.0339548186388083
H -5.525706551925438 -6.129577032772226 -2.0565602227661546
O -6.677368461634825 0.4806770221581206 -3.2699538495078997
H -7.296732726327302 0.4729565224966823 -4.015135477305398
H -6.651593898248922 -0.4427617025073334 -2.977449938473354
O 8.638220472675414 -5.672368222144659 0.16682516146926107
H 8.344339732249695 -4.839280358375284 -0.2313784027375534
H 7.815991056495889 -6.0980234718785065 0.45268935972272506
O 2.5795084917521387 -4.087706107639832 4.875757671226125
H 2.6045995718933668 -5.011832956560002 4.585365932875627
H 2.660920747683372 -3.581662628629987 4.0534110373570496
O 3.1635689888358263 5.9742431863871 -5.073684501368606
H 3.639463358531759 5.42434479676802 -5.714077870233442
H 3.465528489050017 5.646129121848024 -4.213380156859036
O 1.14649005011516 7.515514775536986 -2.5095437248598182
H 1.061299452152605 7.47192667077503 -3.4738102834638402
H 1.8793112700789891 8.13326655388499 -2.3670033999738274
O -10.91043888029751 -3.138294352320608 4.060163807959322
H -10.762849057685202 -2.489046586519735 3.3561311810421857
H -10.01873271439456 -3.346890467080028 4.376880903958148
O -11.469914111867082 0.27823637462527184 -6.957410409259481
H -11.532888539726422 0.6497137495923884 -7.850162411902618
H -10.638187980305956 0.636691295262847 -6.612876439600361
O 4.749260834773461 -1.3063574069143555 -8.083837166346067
H 4.684561653104692 -1.1824575276813851 -9.042706392423035
H 4.055561470234496 -0.731990484393916 -7.726281891944144
O -4.715466144355345 9.660787242369508 -3.46427775768921
H -4.886374312741545 10.105678605159984 -2.6205779116578696
H -4.463447271777822 8.761030377119557 -3.2075950438179155
O -3.4617826981624837 3.443135352887794 2.5921929536671393
H -3.948202921488435 3.395465610032303 3.428906954300345
H -2.687611864543418 3.986766135364077 2.8021620871553377
O 1.6406881640219293 9.805099986848637 6.222731025280111
H 2.4519169855383316 9.29603944460325 6.075311486649902
H 0.9304727273699602 9.16994211942577 6.046292760461819
C 14.251694646087309 -11.22692029463239 -5.181260504226527
O 14.06446610178081 -12.356776052378985 -4.833137399299931
O 14.438923190393808 -10.097064536885792 -5.529383609153124
O -2.1904930354140264 13.757183184176789 -18.154660996985058
H -1.525378086106171 13.11329046641517 -17.868319192281717
H -2.9508622479429736 13.579099364496134 -17.581000158068843
O -3.9598577159288775 -17.33786897399291 -1.621126499350606
H -4.289354650157976 -17.701473010995628 -0.7855481179231316
H -4.643089805697148 -16.703876474532393 -1.8860970004232396
O 7.392627128402277 11.201448276412474 4.420740375537919
H 6.9702835480459955 12.060542880521671 4.270574739581138
H 7.410312219255431 11.114810168425006 5.385697897973943
O 18.295121837383213 -9.629833678448225 -3.3589063345141517
H 17.529205898305573 -10.20091921508159 -3.197037742702779
H 19.006942072841525 -10.249576582187888 -3.5784345330591396
O 13.037707760773783 -14.145540952849538 3.7446075423057854
H 12.802860487545049 -14.310532219833945 2.8190849888388754
H 13.776708746342164 -14.750116284842035 3.9099198394137855
O 1.1844713562618843 13.123415434911427 -10.02168480906453
H 0.6810627876124227 13.928588623304336 -9.828699559360048
H 2.052340243955791 13.4513702441788 -10.301347429289939
O -1.919933607683868 16.434483249580325 -6.7675520003908485
H -2.6351589190367255 17.070693500590828 -6.617030814475505
H -1.9804946958055343 15.83109730522999 -6.011761221758313
O 10.707362147928515 -1.209697203180653 -4.2785550512257045
H 10.89689248405426 -1.4126863075918377 -3.350201114368425
H 11.372623470574405 -1.7152927327526202 -4.769230582884136
O 14.879004297568487 4.520400568893705 5.566802908881218
H 15.083814875023762 3.8925654017562428 4.8576886817161515
H 15.263683616859854 4.113767431414916 6.357772729489871
O 4.44542936257648 5.022043788734016 -17.50194538091005
H 4.2151934326763225 4.954839916110915 -18.44079702679851
H 3.6748397974079863 5.452590673597785 -17.102216665044487
O 4.235268729192519 7.888242859662812 6.232033498664816
H 3.958170791618641 7.308031510701557 6.956974103424176
H 5.109172455925638 7.55132430209283 5.983557933936754
O 15.739587425083078 -2.553899617259206 -10.610755043026286
H 14.820245141193029 -2.5119699938731013 -10.914101426941661
H 15.71388376294726 -3.180131766743521 -9.871745867843012
O 6.616854421128179 1.5642585463535397 7.589083228761396
H 6.036440683505339 0.8392754977948467 7.8656457522189855
H 6.536134473658395 2.214166086971706 8.303272575523247
O 9.69457340656314 3.176838073106129 -6.211437660101981
H 9.603605323174166 2.3074274794224383 -5.7933259713212095
H 9.713985643054555 3.7945857872502664 -5.465131509086129
O -11.069284523660892 5.111644779687792 6.365320044101718
H -10.717105160375928 5.819143839157628 6.926017942996919
H -10.539933643581895 4.3366063190265205 6.60628679399763
O -18.629867110690988 2.40900481948736 -13.150242533922787
H -18.63338770196662 2.633363831840584 -12.207577165983052
H -18.96291068059723 1.4993887517181124 -13.175590790275418
O 22.88924787294813 -7.672302107935072 0.04672963327174173
H 23.533714292896033 -7.844894568740246 0.7494687263445163
H 23.33426494896198 -7.975948266184377 -0.7587023979615077
O 7.3738358700990805 -19.951044796019865 -6.506091063356955
H 7.967954673760749 -19.309381579825356 -6.088648227727273
H 6.831512365108353 -20.27917887946344 -5.7731687049060625
O -15.558783508467389 7.283760731914708 8.161703875631915
H -15.16220667419414 6.834043883067367 8.922919303274199
H -16.35504436688688 7.700043583184275 8.524525012540906
O -8.816806970961002 3.8528815969635284 9.229053926951073
H -9.44817986351277 3.704270334955658 8.509157878722412
H -9.310178245711478 3.610093352199784 10.026926471757342