194

C -5.0710522388059704 1.0783507462686561 0.47044029850746183
C -3.8153522388059704 0.1782507462686569 0.19534029850746193
C -4.11845223880597 -1.3219492537313435 0.5608402985074619
C -2.96945223880597 -2.3874492537313436 0.7034402985074619
C -2.52015223880597 0.7359507462686565 0.7384402985074618
C -2.20305223880597 0.7852507462686571 2.097440298507462
C -1.5755522388059702 1.205650746268656 -0.18965970149253808
C -0.9533522388059701 1.2695507462686564 2.508640298507462
H -2.91125223880597 0.4298507462686567 2.840840298507462
C -0.32655223880597006 1.6562507462686575 0.21554029850746192
H -1.7850522388059702 1.178550746268657 -1.2573597014925382
C 0.004447761194029898 1.6956507462686563 1.569740298507462
H -0.7158522388059702 1.2676507462686573 3.5705402985074617
H 0.3943477611940298 1.9193507462686572 -0.5551597014925382
C -1.76045223880597 -2.1592492537313435 -0.1734597014925381
C -0.5287522388059701 -1.936549253731343 0.464840298507462
C -1.8068522388059702 -2.121249253731343 -1.5681597014925381
C 0.6114477611940299 -1.614449253731343 -0.2582597014925381
H -0.4544522388059702 -1.954049253731343 1.5506402985074619
C -0.6479522388059701 -1.8270492537313432 -2.2998597014925384
H -2.74345223880597 -2.290549253731343 -2.092259701492538
C 0.5698477611940298 -1.5506492537313434 -1.6506597014925382
H 1.5072477611940298 -1.351949253731343 0.2991402985074618
H -0.7173522388059701 -1.7640492537313435 -3.3840597014925375
C 1.7791477611940298 -1.082849253731343 -2.4255597014925376
H 1.4739477611940297 -0.9102492537313429 -3.464259701492538
H 2.1252477611940295 -0.1337492537313434 -2.0010597014925384
C 1.3965477611940298 2.0964507462686566 1.997440298507462
H 1.51704776119403 1.8448507462686567 3.057640298507462
H 2.1256477611940294 1.5207507462686571 1.4165402985074618
C 3.94864776119403 -1.4275492537313434 -3.522959701492538
H 4.81734776119403 -2.087049253731343 -3.615159701492538
H 3.4305477611940303 -1.3641492537313429 -4.484459701492538
H 4.26984776119403 -0.441449253731343 -3.176459701492538
C 2.60904776119403 -3.4296492537313434 -2.8992597014925376
H 1.9825477611940296 -3.869549253731343 -2.119359701492538
H 2.06294776119403 -3.373349253731343 -3.845759701492538
H 3.5215477611940305 -4.019849253731343 -3.0234597014925377
C 3.7281477611940304 -2.060049253731343 -1.156659701492538
H 3.9048477611940298 -1.032549253731343 -0.8295597014925382
H 3.12924776119403 -2.623249253731343 -0.4404597014925382
H 4.68244776119403 -2.5769492537313434 -1.3005597014925383
C 3.1110477611940297 3.755250746268656 2.588740298507462
H 3.40124776119403 4.809350746268656 2.534540298507462
H 2.9823477611940303 3.461750746268656 3.634840298507462
H 3.86514776119403 3.1392507462686563 2.091540298507462
C 1.99744776119403 3.9574507462686572 0.40494029850746194
H 2.67914776119403 3.230350746268657 -0.04295970149253803
H 1.03214776119403 3.981150746268657 -0.10175970149253821
H 2.4399477611940297 4.958250746268657 0.368240298507462
C 0.7418477611940297 4.4992507462686575 2.475440298507462
H -0.18475223880597014 4.424250746268656 1.901240298507462
H 0.57844776119403 4.189650746268656 3.511940298507462
H 1.1210477611940297 5.524350746268658 2.4432402985074617
N 3.00114776119403 -2.025349253731343 -2.490159701492538
N 1.7831477611940298 3.586450746268657 1.862540298507462
C -3.55075223880597 -3.8435492537313434 0.6444402985074619
H -2.62515223880597 -2.2736492537313433 1.7424402985074618
H -4.67195223880597 -1.3478492537313436 1.5102402985074619
H -4.83415223880597 -1.6757492537313432 -0.1945597014925382
H -3.7169522388059697 0.17335074626865676 -0.900559701492538
H -3.9132522388059705 -4.043149253731343 -0.34225970149253815
H -4.35435223880597 -3.9354492537313432 1.3449402985074619
H -2.78115223880597 -4.545049253731343 0.8904402985074619
H -5.24235223880597 1.138950746268657 1.5249402985074618
H -5.92805223880597 0.6501507462686567 -0.006059701492538094
H -4.89895223880597 2.059650746268657 0.08004029850746197
C -2.374257292231995 3.721414948028047 1.6309537922816375
O -2.7642306067850013 3.4578218370779705 2.757991939105516
O -2.1435198716344335 2.891078683416517 0.7444249464413257
O -2.149997167229514 4.8593097375154075 1.202525001475757
O 2.700256173235668 -2.943799467389693 9.385182263085959
H 1.8827414329397647 -2.425796741678734 9.33711790565825
H 2.4287096799725596 -3.834937850402765 9.118542377439878
O -1.0987958267990168 -2.155437146692533 10.451056880573281
H -0.5026105341499438 -2.4867593059833744 9.7627574686225
H -0.8004195436934074 -1.245820017850407 10.60115756976919
O 7.064279840330794 -8.739066768145591 -1.9298965022422943
H 7.297608416205341 -9.265742788925571 -2.7090867881902927
H 6.782245917743311 -9.398048786886873 -1.2778524011374808
O -7.537565617677224 1.9400570719320331 5.6473044838667175
H -8.229753441003766 1.7591672972316492 4.993758568458082
H -8.012041642855301 1.9576155653206286 6.492009251901758
O -0.639166093710801 -6.296044083340819 -3.8291453034923233
H 0.32762987760040646 -6.298196374599034 -3.763813271541983
H -0.8347677490395357 -7.03040002592221 -4.430330205438517
O 4.282486246878118 1.9297689845092338 -11.684288939784501
H 3.3882216069503075 1.6010242317501837 -11.507696193024689
H 4.271717244873785 2.1409991981407064 -12.629925111758181
O -11.116837345174025 0.7908372042034548 3.674929764503835
H -11.9193386863409 0.8491248794932318 3.1349654126854207
H -11.444726558569176 0.5619091243817493 4.557563631012625
O 2.567081424885991 -8.158928370428693 0.6114891284371979
H 1.8737151854718066 -8.383810166420982 -0.02697683993693234
H 3.243278791455195 -7.716649719671583 0.07659786768475074
O 1.1715483330063514 4.391988879131141 -5.526914721523773
H 1.1075962492578868 4.484549242998425 -4.564464688054509
H 0.3861888586579325 4.8522919479414295 -5.859019411636701
O 9.222813131185235 2.923189119823669 0.8085757851264308
H 8.847372608373387 2.4390801938395525 1.5593422724667172
H 9.237120029760783 2.2703322282055263 0.09266019232247213
O -4.216345594535419 0.4374824994520201 7.519756891466599
H -3.699886214738202 0.5518628311526804 8.331640014606576
H -5.032619135502038 0.010165654597102391 7.819856482804302
O -9.17165333892698 1.3501858726438214 -2.275530258314991
H -8.710639103304723 1.381599316354094 -3.1272616872336907
H -9.232633685327414 0.40366951624198943 -2.0771615896279183
O -8.171437660243384 -0.9399110587979096 5.235762146012424
H -7.889517664291893 -0.6765534488916156 4.346868877904742
H -7.717378963339296 -1.7828004109539122 5.385195020868641
O -6.134863324806069 -3.5761646201083637 -3.9466031908227626
H -5.446979478029397 -4.24420810856083 -3.8069569671717534
H -6.288291481413992 -3.2098803612002964 -3.062715422643983
O -3.4161613037524123 1.4639510444668276 -5.38261529705838
H -3.0978691156372213 0.6951873440958383 -4.88596671619184
H -4.0787876371665055 1.0949885166422715 -5.985736296218174
O 5.737016339732945 8.62641897213268 -3.7586447980858306
H 5.015398455687852 8.319497279254847 -4.327884695464158
H 5.8712018023384545 9.547772411794027 -4.027092269948672
O -0.19344138538584632 7.340435320203403 -3.675423951551914
H -0.15921722258353022 8.25675732604629 -3.362134875475922
H 0.7371910011366647 7.074983414630824 -3.7246234564610257
O 10.115030374458275 -1.3617079330136255 -2.1036658905187444
H 9.499859679920064 -1.6360856403738073 -1.4070675505945482
H 9.72644427818167 -0.5446336312705373 -2.450584289442113
O -6.120487687235919 2.828412613352475 -3.433435215009392
H -6.674766354116784 2.0643809207788757 -3.6525198769186478
H -6.755912603240333 3.510119450445242 -3.1679678748679785
O 6.513894429952074 -1.2696613612161274 -5.481393150156744
H 6.492581463953918 -1.5304886424147122 -6.414389529443886
H 5.620405768995441 -0.9354168362816881 -5.311332706216145
C -7.370135322412438 -18.09868605219249 9.955835902298784
O -7.376589369008081 -17.945309598408926 11.142955216440088
O -7.3636812758167975 -18.252062505976056 8.768716588157481
O 9.933973237766775 -12.374337607284476 -4.177371100216387
H 9.658077148804479 -12.215129917389577 -5.092522244276012
H 9.16972713100769 -12.095929102864073 -3.6507037125133177
O -0.3788112719583432 -15.857673069856672 11.149642370038496
H -0.333007666276524 -15.881098992833977 12.117278981964276
H 0.4985920210725072 -15.546065735748535 10.881265256616652
O 10.634988737605426 -9.423262429147723 -15.978441034481321
H 10.882699702702753 -8.814932094874166 -15.266022029209022
H 11.11544504783228 -10.238053217993988 -15.768108800445544
O -4.3311045954249 -6.304098406082745 -1.3237173993059959
H -4.211055284601614 -5.996867244718623 -2.2348510521570515
H -5.046426630807591 -5.747302208363983 -0.9812932117813795
O 1.512543239073834 4.291292594268027 -8.096516883015614
H 1.8205304025079874 3.7501327332967573 -7.3540498676315345
H 2.1246426741277817 5.04239442953126 -8.108444119528624
O 16.25075694602587 16.478764152431545 7.884020685731376
H 16.447389752940644 15.677071645613132 7.376485444929286
H 15.893197094014504 17.091710935735804 7.22416529447768
O -13.391531625440427 1.9289920165887904 12.367379485623056
H -12.47046567071447 1.9884503797171798 12.662455013240741
H -13.772552206607603 2.78463991481846 12.615677563106903
O 16.963508445018714 6.614002262997242 7.746338497476767
H 16.748319801889856 6.789767847590992 6.818024076582216
H 16.4482231992291 5.821692552023416 7.960086904881615
O -6.996885745981153 5.4859848109449985 1.826006205286358
H -7.888249615717198 5.1740457693415705 2.0431048993237
H -7.148817841545458 6.31761336389022 1.3524319950893955
O 12.30589610926019 7.957999149160698 -15.343812280743563
H 12.339076275776808 8.189712853745867 -14.403506377030656
H 12.599853851363235 7.034977460994876 -15.36793184403133
O -6.066935835438398 -4.546862548380455 -13.58713148600983
H -6.572333191965167 -4.002181946736034 -14.209115337173209
H -6.3412817557705194 -5.4530897113533054 -13.793162040509149
O -4.584842028616593 15.255602765442283 5.426794571288996
H -4.489674329449552 15.234253052489784 4.462712284504253
H -5.526739414699931 15.081146885323616 5.5729328766076005
O 7.895385206064656 7.4880622677298305 3.903746158811292
H 7.5218059458763475 7.932656456465496 3.1280259124597904
H 8.273970669753323 8.210024298553916 4.42758374531306
O 8.58173707063716 13.18932285893521 4.676082711329954
H 8.064193680832812 13.692277418332425 4.029435274351053
H 8.722117888203 12.331706716812315 4.247422329290991
O -16.574912272787326 5.74027496318684 -2.621552589540314
H -16.91695984524639 6.202750761370975 -1.8417532876883493
H -16.496767115937192 4.818946124208766 -2.33171047867962
O -5.695508394772715 16.909881475153014 0.006118659558460138
H -6.5786144361232095 16.533308143699607 0.1375857758588488
H -5.842464784820562 17.86720869078448 0.03595765980002419
O 20.59341974827194 0.21065880723562813 10.7928595572132
H 20.371002659747447 0.31299372479502274 11.730423187203398
H 19.77812164553123 0.4568847708692836 10.330665092945107
O -3.9151164601924715 5.220296768938665 10.550523347081711
H -3.7756270027935654 5.345697976207885 11.501199204243333
H -3.187153784605597 4.6399862422682565 10.281688862895047
O 8.513903845825622 -8.430911547750844 -11.279404088633477
H 8.387496978005915 -8.10521987746918 -10.375571362639805
H 8.479050326052924 -7.630049349569485 -11.823800007045415
O -7.174518831674424 8.647115957929296 -1.3984336335288332
H -6.8232183573393 8.782926240991568 -2.2912443081102154
H -8.027308805739786 8.211380333689275 -1.5462364420331407