194

C -5.0710522388059704 1.0783507462686561 0.47044029850746183
C -3.8153522388059704 0.1782507462686569 0.19534029850746193
C -4.11845223880597 -1.3219492537313435 0.5608402985074619
C -2.96945223880597 -2.3874492537313436 0.7034402985074619
C -2.52015223880597 0.7359507462686565 0.7384402985074618
C -2.20305223880597 0.7852507462686571 2.097440298507462
C -1.5755522388059702 1.205650746268656 -0.18965970149253808
C -0.9533522388059701 1.2695507462686564 2.508640298507462
H -2.91125223880597 0.4298507462686567 2.840840298507462
C -0.32655223880597006 1.6562507462686575 0.21554029850746192
H -1.7850522388059702 1.178550746268657 -1.2573597014925382
C 0.004447761194029898 1.6956507462686563 1.569740298507462
H -0.7158522388059702 1.2676507462686573 3.5705402985074617
H 0.3943477611940298 1.9193507462686572 -0.5551597014925382
C -1.76045223880597 -2.1592492537313435 -0.1734597014925381
C -0.5287522388059701 -1.936549253731343 0.464840298507462
C -1.8068522388059702 -2.121249253731343 -1.5681597014925381
C 0.6114477611940299 -1.614449253731343 -0.2582597014925381
H -0.4544522388059702 -1.954049253731343 1.5506402985074619
C -0.6479522388059701 -1.8270492537313432 -2.2998597014925384
H -2.74345223880597 -2.290549253731343 -2.092259701492538
C 0.5698477611940298 -1.5506492537313434 -1.6506597014925382
H 1.5072477611940298 -1.351949253731343 0.2991402985074618
H -0.7173522388059701 -1.7640492537313435 -3.3840597014925375
C 1.7791477611940298 -1.082849253731343 -2.4255597014925376
H 1.4739477611940297 -0.9102492537313429 -3.464259701492538
H 2.1252477611940295 -0.1337492537313434 -2.0010597014925384
C 1.3965477611940298 2.0964507462686566 1.997440298507462
H 1.51704776119403 1.8448507462686567 3.057640298507462
H 2.1256477611940294 1.5207507462686571 1.4165402985074618
C 3.94864776119403 -1.4275492537313434 -3.522959701492538
H 4.81734776119403 -2.087049253731343 -3.615159701492538
H 3.4305477611940303 -1.3641492537313429 -4.484459701492538
H 4.26984776119403 -0.441449253731343 -3.176459701492538
C 2.60904776119403 -3.4296492537313434 -2.8992597014925376
H 1.9825477611940296 -3.869549253731343 -2.119359701492538
H 2.06294776119403 -3.373349253731343 -3.845759701492538
H 3.5215477611940305 -4.019849253731343 -3.0234597014925377
C 3.7281477611940304 -2.060049253731343 -1.156659701492538
H 3.9048477611940298 -1.032549253731343 -0.8295597014925382
H 3.12924776119403 -2.623249253731343 -0.4404597014925382
H 4.68244776119403 -2.5769492537313434 -1.3005597014925383
C 3.1110477611940297 3.755250746268656 2.588740298507462
H 3.40124776119403 4.809350746268656 2.534540298507462
H 2.9823477611940303 3.461750746268656 3.634840298507462
H 3.86514776119403 3.1392507462686563 2.091540298507462
C 1.99744776119403 3.9574507462686572 0.40494029850746194
H 2.67914776119403 3.230350746268657 -0.04295970149253803
H 1.03214776119403 3.981150746268657 -0.10175970149253821
H 2.4399477611940297 4.958250746268657 0.368240298507462
C 0.7418477611940297 4.4992507462686575 2.475440298507462
H -0.18475223880597014 4.424250746268656 1.901240298507462
H 0.57844776119403 4.189650746268656 3.511940298507462
H 1.1210477611940297 5.524350746268658 2.4432402985074617
N 3.00114776119403 -2.025349253731343 -2.490159701492538
N 1.7831477611940298 3.586450746268657 1.862540298507462
C -3.55075223880597 -3.8435492537313434 0.6444402985074619
H -2.62515223880597 -2.2736492537313433 1.7424402985074618
H -4.67195223880597 -1.3478492537313436 1.5102402985074619
H -4.83415223880597 -1.6757492537313432 -0.1945597014925382
H -3.7169522388059697 0.17335074626865676 -0.900559701492538
H -3.9132522388059705 -4.043149253731343 -0.34225970149253815
H -4.35435223880597 -3.9354492537313432 1.3449402985074619
H -2.78115223880597 -4.545049253731343 0.8904402985074619
H -5.24235223880597 1.138950746268657 1.5249402985074618
H -5.92805223880597 0.6501507462686567 -0.006059701492538094
H -4.89895223880597 2.059650746268657 0.08004029850746197
C 1.844996822234098 -0.6627170688634192 4.224180984553622
O 2.1023441933910805 -1.1814200606754124 3.148776393042187
O 0.7397153361637983 -0.681381326398848 4.777928170678194
O 2.6500341602825195 -0.038856605660383625 4.925152732343793
O -5.276171680245676 -5.6723196344836 -8.059125294646009
H -5.79429828916211 -5.009091781152966 -7.578874330462493
H -5.670968060043917 -6.51601978605324 -7.792164966058461
O -1.2968695634104792 3.8345975708359723 7.182552166318239
H -2.2231507654694127 3.78230252201829 7.462258654411408
H -0.9635684648000393 4.630103420791157 7.624188628413654
O 0.7575699209539386 -6.062534819540074 -6.880621400719645
H 0.3643006525825445 -5.282363129568745 -7.299714199061386
H 1.71025773484644 -5.9433421694238096 -7.01154498804824
O 5.144017852820881 5.873875857274453 -3.165894432831392
H 5.16785251777371 5.895609025879601 -2.197428153073047
H 6.030224507686612 6.164871852961059 -3.4284226021124233
O 5.840882686406405 2.4847973458665398 2.8369578325365152
H 6.003046615379367 2.5339131002495736 3.7910321795930946
H 6.513312966189283 1.8648485693633932 2.5168594450938886
O -1.3482868152989775 4.443157501060176 -4.525372054808467
H -2.110549069915389 4.01234623930006 -4.940492843046978
H -1.5567191056988472 5.388070890944139 -4.576914369819153
O -5.533983316117988 8.01959721717763 6.48290114695129
H -5.513259574739298 8.16443036261995 7.440795318258618
H -4.600192683850075 7.93280091132761 6.239049961431353
O -3.735586094316561 -4.4605683290742295 -7.558239975698913
H -3.347796494854739 -4.456009144633804 -8.44625224886099
H -3.0270072109580637 -4.120187006917308 -6.99165506071694
O -6.70716744119272 -1.1534667895982187 -5.40881540614419
H -6.8013512604052 -1.2564363264684517 -4.449912887858164
H -5.857303704171221 -0.6998061845832648 -5.513149620346995
O -4.3568615821688566 3.179547002583302 -3.46723850186702
H -4.689555445998402 3.7445791333704586 -2.7537815367680074
H -4.970086151867203 2.4293314262273844 -3.4769421306333212
O -1.026213712737016 -3.13153003914611 -6.946777419280625
H -0.6962612337313969 -3.2936174950594297 -6.050213771158756
H -0.27267132980362696 -2.7293352900941152 -7.404352774012577
O -2.0129920584459526 0.38724475615112897 -8.260019932670346
H -2.894498644961469 0.2504865915668193 -8.638451827797187
H -1.6932020725174282 1.1912791624761363 -8.696167823465917
O 6.164126015420814 4.667535860286284 1.9575182269730385
H 6.3594057877461365 5.416471141662955 2.5405526270986396
H 7.009723154719584 4.483654485811304 1.5214963669351174
O 7.059738087141357 1.0968940186066252 5.838137814082656
H 8.017490374723701 1.0521064228849444 5.97839466347069
H 6.750895691986266 0.20184759441141953 6.044220850236147
O -3.5700972782252363 -6.879463997405191 3.1748625191849893
H -3.8153903432465954 -6.868085781830196 2.2374889515169243
H -4.261490209616499 -6.353470410386955 3.6041275947943223
O 8.631269574247076 4.889222173202542 -4.593978329768848
H 8.899594607714064 5.573144311902555 -3.962140105607836
H 8.098635287337528 5.36893938636411 -5.246001378521616
O 1.204922597374642 -9.976880062877811 -3.3009166245047266
H 1.6289936677296986 -9.644511174836367 -4.106312183500436
H 0.29231703499917394 -10.15529599549782 -3.5734616424534837
O 6.755993529348695 -1.9931878808004018 -7.998194691295868
H 6.756855404975535 -1.5106828759693463 -7.15786408112902
H 7.468870891902813 -1.5785074021396521 -8.506926360130802
O -7.800136530717336 2.421263735681274 -4.03311502948876
H -7.980553106010504 2.759210403350756 -4.923176412804864
H -8.464215116290676 1.726900881267769 -3.9073302812334862
O 4.937387607721602 4.660199125210724 5.479332003795122
H 5.034440490380204 5.606047003474582 5.29246337065565
H 4.604800237106003 4.6342779066191575 6.389098828664951
C -10.079485414896933 8.826709714622321 -14.369870193730769
O -10.436088331976318 9.726493820714099 -13.665568284564614
O -9.722882497817547 7.926925608530543 -15.074172102896927
O -12.91079326806194 -2.7330688044522686 2.5750722157137216
H -12.838614398660553 -2.596662967621266 3.5317074729514903
H -12.014355814416787 -2.9841555717838784 2.3061535081585327
O -6.491854320236217 -13.983031659951026 -1.3599673641729062
H -6.960282886969523 -13.737986201644945 -0.5478745381168304
H -7.0306699814105835 -14.69577670985406 -1.7349795258582956
O -21.286469855736392 -7.180318573400287 -4.06557307341617
H -21.56448921853998 -7.914767925512447 -4.633249689094777
H -20.32304590291131 -7.272741683667242 -4.018305747370799
O 15.237350850271 4.237219061379475 -9.893854919844905
H 14.702668007648935 4.796761344834934 -10.476945005278571
H 14.61989302524523 3.5524932944518923 -9.595763654089131
O 0.33959129359338114 -13.261002575838592 5.991670322502915
H -0.31918589326154656 -13.88594866537042 5.653406579015109
H 1.156136178445129 -13.781119229106935 6.032841456995245
O 12.93781510636155 -2.732274956593529 -9.06745638635697
H 12.911367039049377 -2.498439493494418 -8.127462326358357
H 12.079425768340228 -2.4368706644951503 -9.406375245202522
O -1.770158040483631 -15.183913678570594 -1.1041968710662116
H -1.1110139441102236 -14.706812942543378 -0.5780112528682464
H -2.545308322646072 -15.227830906299227 -0.5243906435452241
O -7.633530855659146 -10.734053986207018 -13.470673696844965
H -7.688372023349801 -10.859951936734436 -12.511450308223043
H -8.150963446945532 -9.930661911072743 -13.631255860817495
O -10.197937235913189 -0.5550940048850603 14.379051136801774
H -9.638564752505895 0.21410791055952494 14.564518640648508
H -10.721509007444155 -0.28380238928005985 13.610132803258898
O -4.746276198946208 -11.292904326966076 -16.949666041605425
H -4.515073398916312 -11.379780670479063 -16.01266811039311
H -5.6020110517605595 -10.838422714082043 -16.938429070077134
O 10.68356817848857 -13.636032929440784 -7.743447664925318
H 11.342949843399701 -13.460546741972268 -8.431479477334301
H 11.152793154293233 -14.196112791488186 -7.106972673656945
O -10.428060029619497 9.966074480909072 3.1047117326631684
H -10.889315949390534 9.269986948200238 2.6131097796732496
H -9.799862736604982 9.482256565285795 3.661712926442125
O 9.335844088737286 6.9866086021626295 0.3680582484979083
H 9.375520051481057 6.951111300471614 -0.5994814749517354
H 9.872378036863282 6.23138139012994 0.6521799214017192
O -4.9085087996246575 -19.46971734756631 4.602284134339592
H -4.616962589221876 -19.731021478243886 5.488674745408222
H -4.264817717749103 -18.797366817844722 4.332898721599825
O 18.73629474780713 -4.647302097302076 1.0277291259622228
H 19.533043870064454 -4.55897721140353 0.4833423998077393
H 19.04544991929856 -5.108238186039441 1.8220357080447371
O 0.7845556508537557 -5.804206255075841 18.87334187849526
H -0.14137910680059051 -5.9932648569904625 19.087512433216673
H 1.0617423323726547 -6.5650363129263605 18.3411134397965
O 16.885627555639022 -3.932753303601716 15.928304104807632
H 16.859845875708608 -4.576109067926161 16.652456038030543
H 16.7950373137391 -3.0764249652176474 16.372665589696787
O -5.138024318934081 -8.111416355265124 7.863891464126221
H -5.261293419536084 -8.50806799986069 6.988426125819553
H -5.998055498490489 -7.711844968729715 8.063017106756668
O -9.4482489486042 -10.431271031645569 6.2575949548951675
H -8.737851524591216 -11.06271417233504 6.4462279767443
H -9.085316679651493 -9.87440932812734 5.552508325034965
O -18.626583959527885 -4.645082030328665 0.26373170739851926
H -19.47319434047593 -4.405504430692341 0.6697129797787928
H -17.97317000877549 -4.137622107582728 0.7682082480511356