194

C -5.0710522388059704 1.0783507462686561 0.47044029850746183
C -3.8153522388059704 0.1782507462686569 0.19534029850746193
C -4.11845223880597 -1.3219492537313435 0.5608402985074619
C -2.96945223880597 -2.3874492537313436 0.7034402985074619
C -2.52015223880597 0.7359507462686565 0.7384402985074618
C -2.20305223880597 0.7852507462686571 2.097440298507462
C -1.5755522388059702 1.205650746268656 -0.18965970149253808
C -0.9533522388059701 1.2695507462686564 2.508640298507462
H -2.91125223880597 0.4298507462686567 2.840840298507462
C -0.32655223880597006 1.6562507462686575 0.21554029850746192
H -1.7850522388059702 1.178550746268657 -1.2573597014925382
C 0.004447761194029898 1.6956507462686563 1.569740298507462
H -0.7158522388059702 1.2676507462686573 3.5705402985074617
H 0.3943477611940298 1.9193507462686572 -0.5551597014925382
C -1.76045223880597 -2.1592492537313435 -0.1734597014925381
C -0.5287522388059701 -1.936549253731343 0.464840298507462
C -1.8068522388059702 -2.121249253731343 -1.5681597014925381
C 0.6114477611940299 -1.614449253731343 -0.2582597014925381
H -0.4544522388059702 -1.954049253731343 1.5506402985074619
C -0.6479522388059701 -1.8270492537313432 -2.2998597014925384
H -2.74345223880597 -2.290549253731343 -2.092259701492538
C 0.5698477611940298 -1.5506492537313434 -1.6506597014925382
H 1.5072477611940298 -1.351949253731343 0.2991402985074618
H -0.7173522388059701 -1.7640492537313435 -3.3840597014925375
C 1.7791477611940298 -1.082849253731343 -2.4255597014925376
H 1.4739477611940297 -0.9102492537313429 -3.464259701492538
H 2.1252477611940295 -0.1337492537313434 -2.0010597014925384
C 1.3965477611940298 2.0964507462686566 1.997440298507462
H 1.51704776119403 1.8448507462686567 3.057640298507462
H 2.1256477611940294 1.5207507462686571 1.4165402985074618
C 3.94864776119403 -1.4275492537313434 -3.522959701492538
H 4.81734776119403 -2.087049253731343 -3.615159701492538
H 3.4305477611940303 -1.3641492537313429 -4.484459701492538
H 4.26984776119403 -0.441449253731343 -3.176459701492538
C 2.60904776119403 -3.4296492537313434 -2.8992597014925376
H 1.9825477611940296 -3.869549253731343 -2.119359701492538
H 2.06294776119403 -3.373349253731343 -3.845759701492538
H 3.5215477611940305 -4.019849253731343 -3.0234597014925377
C 3.7281477611940304 -2.060049253731343 -1.156659701492538
H 3.9048477611940298 -1.032549253731343 -0.8295597014925382
H 3.12924776119403 -2.623249253731343 -0.4404597014925382
H 4.68244776119403 -2.5769492537313434 -1.3005597014925383
C 3.1110477611940297 3.755250746268656 2.588740298507462
H 3.40124776119403 4.809350746268656 2.534540298507462
H 2.9823477611940303 3.461750746268656 3.634840298507462
H 3.86514776119403 3.1392507462686563 2.091540298507462
C 1.99744776119403 3.9574507462686572 0.40494029850746194
H 2.67914776119403 3.230350746268657 -0.04295970149253803
H 1.03214776119403 3.981150746268657 -0.10175970149253821
H 2.4399477611940297 4.958250746268657 0.368240298507462
C 0.7418477611940297 4.4992507462686575 2.475440298507462
H -0.18475223880597014 4.424250746268656 1.901240298507462
H 0.57844776119403 4.189650746268656 3.511940298507462
H 1.1210477611940297 5.524350746268658 2.4432402985074617
N 3.00114776119403 -2.025349253731343 -2.490159701492538
N 1.7831477611940298 3.586450746268657 1.862540298507462
C -3.55075223880597 -3.8435492537313434 0.6444402985074619
H -2.62515223880597 -2.2736492537313433 1.7424402985074618
H -4.67195223880597 -1.3478492537313436 1.5102402985074619
H -4.83415223880597 -1.6757492537313432 -0.1945597014925382
H -3.7169522388059697 0.17335074626865676 -0.900559701492538
H -3.9132522388059705 -4.043149253731343 -0.34225970149253815
H -4.35435223880597 -3.9354492537313432 1.3449402985074619
H -2.78115223880597 -4.545049253731343 0.8904402985074619
H -5.24235223880597 1.138950746268657 1.5249402985074618
H -5.92805223880597 0.6501507462686567 -0.006059701492538094
H -4.89895223880597 2.059650746268657 0.08004029850746197
C -0.32244758683905683 4.176953514139473 -3.097599727553711
O -0.3823341453425533 3.7513779207225197 -4.2408733225424236
O -0.8515393450379203 3.6496379393984095 -2.112393322711793
O 0.27652415094400506 5.200816180746946 -2.748907195851962
O -2.358682931237409 6.45649570653356 3.4761918106908487
H -1.8336341914324878 6.321952207138503 4.279428528290211
H -3.131223682979308 5.88551566905421 3.60317420316374
O 7.206177109389312 -0.12331948447032626 -1.7910858688259237
H 6.515493288972933 -0.46251832998785714 -1.2021314051238385
H 7.39712584862949 -0.8679043424918151 -2.3810807098946443
O 10.603842813895366 -1.240553528496581 -1.3818089609079185
H 10.651096185749042 -0.5982894830648351 -0.6577707217975055
H 10.396135782633763 -2.077228181024921 -0.9393213799736397
O 2.0966748470591643 3.3526792453902217 -2.876149268243367
H 3.042502252539133 3.1530749771232482 -2.943499190534622
H 1.7922379574261436 2.7985844104577007 -2.141806678962538
O -4.690203793213397 0.9191523245154012 7.240792235598882
H -4.023415384525927 0.42767041534613326 6.73799395805672
H -4.895930020570221 1.6792370460301513 6.67607117188922
O -8.59136682030568 4.050623253959833 -4.074191809026873
H -9.388918798037707 4.066860269755512 -3.5240876743089244
H -8.695379634214495 3.2524703131794133 -4.61372416391056
O 8.951812907115775 -1.4094308750079714 7.433828204087098
H 8.634396822919562 -0.7220356892887532 6.829095002548117
H 8.660511317307954 -2.236566716859694 7.021576306335644
O 1.7901789978998004 -7.565655634689463 -1.2465520938764687
H 2.666095469584108 -7.979217098762201 -1.2200076600695806
H 1.4198767477942844 -7.745228442975351 -0.36928828270498815
O 6.279430297820724 0.9761132629596618 7.679860861326188
H 5.7820969490402065 1.6887626086476863 7.2511910499547945
H 6.37591659532901 1.2763349775132433 8.596113698049571
O 1.0717581891960377 4.7713801865614185 -6.773986294333994
H 1.6561464212147496 4.882761450632942 -6.009099397340802
H 1.61303086556378 4.2839863761712 -7.413074009527304
O -6.1225898004663275 6.294542900051168 -0.3464129971853076
H -5.792528040515884 7.115479947341974 -0.7414939457311311
H -5.396353930526041 5.665558005011869 -0.47259305632492277
O -7.280403762955377 -9.290109282019937 0.860415825700926
H -7.110005377891441 -10.21157812504237 0.613784686940015
H -6.48246172690306 -8.820090614723568 0.5752265836288855
O -5.766797213355434 -1.3287480890475365 -10.827452296479212
H -5.62060903522361 -0.9133702839220179 -11.69061951810177
H -6.331634893780525 -2.0904196463239764 -11.026893460505308
O -1.8477208035142607 5.273376051114663 8.739750435363437
H -2.715555703680473 5.529775208419186 9.086289632406185
H -1.2201250921525766 5.68146347472209 9.355014786739227
O -0.37125977527213716 0.538622578614843 -6.112679994381812
H -0.3391769724231377 1.181295624151189 -5.388173674738987
H 0.5565923397508761 0.4291772942965661 -6.369728874340102
O -1.0919932512675596 -3.7347723981318577 4.126576146151064
H -1.8552663117669879 -3.5272989598472138 3.5668115845520063
H -0.9282622583037095 -2.912920920894485 4.613109038775827
O -5.017001866931211 -7.683075287743733 3.537461124410377
H -4.384901845823929 -7.40103295632988 4.215597573443175
H -4.7294158221252385 -8.57945297119857 3.307758578196808
O -6.8723939389409 -6.0322882953274375 0.7748920054057744
H -5.956061248320964 -6.10980020756649 0.46945189595340375
H -7.35830913641143 -5.745851080101783 -0.013017943066096826
O 3.2206651077809534 2.2022732804456995 -6.2474421548663965
H 2.938698773318318 2.376837026350721 -5.336953362104337
H 2.8931516952949234 1.308054987103943 -6.42652468554628
O -1.85654412446745 -3.8551976149102307 -4.9542110115745945
H -0.9494433612173341 -4.195776469220907 -4.94231117092502
H -2.1222534082278917 -3.8643986842952875 -4.022397800064002
C -2.6338717806058107 -16.108621495256003 6.824590314876394
O -2.578039923707017 -16.529675835894018 7.943703492032807
O -2.6897036375046044 -15.687567154617987 5.705477137719983
O -2.908314428611705 -3.7005899635044344 11.747043568049381
H -3.556077821290714 -4.367187109275584 11.47314908242629
H -2.64448245582688 -3.2757104258964 10.917084525109038
O -12.095055419483854 -5.684989709344424 -9.677095529526063
H -12.22758607479582 -6.637539200463445 -9.795638556615296
H -12.933489607658565 -5.29430530075877 -9.965809487082485
O -9.414614890252308 4.3289062057122205 14.19429118860925
H -9.411649008532581 3.8811581680990144 13.334942449586991
H -8.539670390931661 4.134444727929528 14.562555768859802
O -9.273493862607749 7.442944788689231 -2.236822732361986
H -9.047977065496456 7.894921324676587 -3.0637609054060984
H -9.720653531726754 8.124003441626197 -1.7122569253624569
O 2.47304251968377 -18.69840847873189 -6.971769206949406
H 1.5207545462452992 -18.533645942297884 -6.901283186120574
H 2.8720295109163057 -18.00016775927328 -6.431185057332411
O 15.225512127537144 -0.044679316521675894 11.683249934394922
H 15.699803429255503 0.3937200178618392 12.405621820355607
H 15.9212068575846 -0.26316339788098375 11.045099879096973
O 14.9864336452084 -12.004159964173864 -14.855558835071426
H 14.891475157517702 -12.143797181623158 -13.90138291312699
H 15.387486263407915 -12.826886016354369 -15.173742091700053
O 2.404611905897398 -15.197505387074937 4.137722772470684
H 2.6000724468917977 -15.07102298930919 5.078342109327845
H 2.6124272477572323 -16.130534644720157 3.978879666338597
O -3.301187118509861 10.733400008278657 -1.2097407521914547
H -2.8354181328518875 11.528182772732233 -1.5103184729670875
H -2.8166534448934324 10.464738883850321 -0.4147500203884551
O -12.230267466811258 8.50325858487103 -10.149827713433679
H -12.923054945544889 8.720508182809285 -9.50809920510203
H -12.570390364581952 7.718133281640794 -10.604642639463702
O 8.111627839705886 -12.210584920630563 0.22233871192923693
H 7.89207802041641 -12.642260131200366 -0.616959653569872
H 7.256595553277291 -12.11853785462847 0.66889114009988
O 0.4705296599105244 15.149528578720975 12.903476682596262
H 0.3826565439150258 14.894163452954054 11.972867030310573
H -0.3596405442639927 14.854156006764022 13.30663226067546
O 14.992915879090221 -3.7740305328962758 4.518801293403902
H 15.917963499785314 -3.5031374580916395 4.419447388753731
H 14.69061873263636 -3.2914365956358056 5.302817537665008
O -13.414652333393883 -2.815156562488752 7.495269694024202
H -12.661919935784264 -2.709782360382449 6.894222630958975
H -13.034676686160353 -2.667572443427659 8.374359780198775
O -5.735832698897789 0.44888421392718114 10.087605812549693
H -5.89969307697726 0.39485377665688715 9.134087147161313
H -6.3647054291796925 -0.18183747287903174 10.469274762295553
O -3.254704164319179 -10.799853494597201 12.080033255251319
H -3.043167761858151 -10.460070797901208 12.962511258580495
H -3.659474983596734 -11.663211379547004 12.252473652653958
O -16.98234317481629 -3.4399039279384933 -1.19884920206907
H -16.930064470511283 -3.668042320875165 -2.139161473415384
H -16.284734974063046 -2.7780528630656365 -1.0794427094965025
O -3.30045894411797 -11.384222174543686 6.545679062465356
H -3.4480352274903994 -11.498908924671259 7.496486901532302
H -3.1804065962508643 -12.287760544613954 6.216790339821429
O -12.21044597609092 0.41271467645341353 -16.608211035833534
H -12.000781561739256 -0.20183904935339125 -15.888953148597288
H -11.58357360484692 0.17629169421218815 -17.308280423779536
O 20.755911735230526 8.934316787811271 -5.515717214560367
H 20.95658327234328 9.304063290190136 -6.388635203303527
H 20.321130903887596 9.662694560296732 -5.04732272959511