194

C -5.0710522388059704 1.0783507462686561 0.47044029850746183
C -3.8153522388059704 0.1782507462686569 0.19534029850746193
C -4.11845223880597 -1.3219492537313435 0.5608402985074619
C -2.96945223880597 -2.3874492537313436 0.7034402985074619
C -2.52015223880597 0.7359507462686565 0.7384402985074618
C -2.20305223880597 0.7852507462686571 2.097440298507462
C -1.5755522388059702 1.205650746268656 -0.18965970149253808
C -0.9533522388059701 1.2695507462686564 2.508640298507462
H -2.91125223880597 0.4298507462686567 2.840840298507462
C -0.32655223880597006 1.6562507462686575 0.21554029850746192
H -1.7850522388059702 1.178550746268657 -1.2573597014925382
C 0.004447761194029898 1.6956507462686563 1.569740298507462
H -0.7158522388059702 1.2676507462686573 3.5705402985074617
H 0.3943477611940298 1.9193507462686572 -0.5551597014925382
C -1.76045223880597 -2.1592492537313435 -0.1734597014925381
C -0.5287522388059701 -1.936549253731343 0.464840298507462
C -1.8068522388059702 -2.121249253731343 -1.5681597014925381
C 0.6114477611940299 -1.614449253731343 -0.2582597014925381
H -0.4544522388059702 -1.954049253731343 1.5506402985074619
C -0.6479522388059701 -1.8270492537313432 -2.2998597014925384
H -2.74345223880597 -2.290549253731343 -2.092259701492538
C 0.5698477611940298 -1.5506492537313434 -1.6506597014925382
H 1.5072477611940298 -1.351949253731343 0.2991402985074618
H -0.7173522388059701 -1.7640492537313435 -3.3840597014925375
C 1.7791477611940298 -1.082849253731343 -2.4255597014925376
H 1.4739477611940297 -0.9102492537313429 -3.464259701492538
H 2.1252477611940295 -0.1337492537313434 -2.0010597014925384
C 1.3965477611940298 2.0964507462686566 1.997440298507462
H 1.51704776119403 1.8448507462686567 3.057640298507462
H 2.1256477611940294 1.5207507462686571 1.4165402985074618
C 3.94864776119403 -1.4275492537313434 -3.522959701492538
H 4.81734776119403 -2.087049253731343 -3.615159701492538
H 3.4305477611940303 -1.3641492537313429 -4.484459701492538
H 4.26984776119403 -0.441449253731343 -3.176459701492538
C 2.60904776119403 -3.4296492537313434 -2.8992597014925376
H 1.9825477611940296 -3.869549253731343 -2.119359701492538
H 2.06294776119403 -3.373349253731343 -3.845759701492538
H 3.5215477611940305 -4.019849253731343 -3.0234597014925377
C 3.7281477611940304 -2.060049253731343 -1.156659701492538
H 3.9048477611940298 -1.032549253731343 -0.8295597014925382
H 3.12924776119403 -2.623249253731343 -0.4404597014925382
H 4.68244776119403 -2.5769492537313434 -1.3005597014925383
C 3.1110477611940297 3.755250746268656 2.588740298507462
H 3.40124776119403 4.809350746268656 2.534540298507462
H 2.9823477611940303 3.461750746268656 3.634840298507462
H 3.86514776119403 3.1392507462686563 2.091540298507462
C 1.99744776119403 3.9574507462686572 0.40494029850746194
H 2.67914776119403 3.230350746268657 -0.04295970149253803
H 1.03214776119403 3.981150746268657 -0.10175970149253821
H 2.4399477611940297 4.958250746268657 0.368240298507462
C 0.7418477611940297 4.4992507462686575 2.475440298507462
H -0.18475223880597014 4.424250746268656 1.901240298507462
H 0.57844776119403 4.189650746268656 3.511940298507462
H 1.1210477611940297 5.524350746268658 2.4432402985074617
N 3.00114776119403 -2.025349253731343 -2.490159701492538
N 1.7831477611940298 3.586450746268657 1.862540298507462
C -3.55075223880597 -3.8435492537313434 0.6444402985074619
H -2.62515223880597 -2.2736492537313433 1.7424402985074618
H -4.67195223880597 -1.3478492537313436 1.5102402985074619
H -4.83415223880597 -1.6757492537313432 -0.1945597014925382
H -3.7169522388059697 0.17335074626865676 -0.900559701492538
H -3.9132522388059705 -4.043149253731343 -0.34225970149253815
H -4.35435223880597 -3.9354492537313432 1.3449402985074619
H -2.78115223880597 -4.545049253731343 0.8904402985074619
H -5.24235223880597 1.138950746268657 1.5249402985074618
H -5.92805223880597 0.6501507462686567 -0.006059701492538094
H -4.89895223880597 2.059650746268657 0.08004029850746197
C -1.5685358849773283 3.3645874268482325 -2.8422515374812325
O -1.9441153633956618 3.6485241971543196 -1.7152664158140654
O -2.1308606433495862 3.708092562616276 -3.8883999743306883
O -0.5679964360963374 2.689794665321098 -3.1109966297592266
O 9.77958160338541 -3.1056831402457603 -2.2030616677168537
H 9.693888183396387 -3.008462416918714 -1.2427637318519722
H 9.30218029331051 -3.925886967660364 -2.39880541584998
O -0.31677641562965775 7.412787910908017 -8.294736859823095
H -0.5949460773531241 6.5065880467707204 -8.495711491143064
H 0.5675338079853387 7.478271636395478 -8.685465991583545
O 3.9358520135858326 4.130377440460702 9.565726803357046
H 3.877847989610097 4.450280797532219 8.652893449323027
H 4.059298480548739 4.936617187827025 10.088890624603376
O -1.3291991070046878 8.776285932559713 -3.3079177408963636
H -1.3297110816727553 8.690241801017148 -2.342742367086492
H -2.240786545236072 9.026336665488625 -3.5210958770183742
O -8.126234239140206 -1.370620350121279 -2.2080236479190885
H -8.480312880946013 -0.47759616100677416 -2.081124199640785
H -7.39062368764138 -1.422255577427799 -1.579395885149582
O 0.5363082642445269 -4.204136688943467 10.541987144890044
H 0.7259010187772259 -3.6852296133239215 11.33807595350418
H -0.207203062296744 -3.7384065220587384 10.130589207050825
O 3.190170397947248 -10.201092194233194 -3.1326329224461458
H 2.4029441339985413 -9.6360814668699 -3.1303869897303214
H 3.7203885637488896 -9.866693025184514 -2.3937094915728956
O 4.886073494283632 -2.738832795118892 -5.691858414626217
H 4.41360763501824 -3.0557558543612564 -6.476271024958992
H 5.815645578074498 -2.7320124046302974 -5.965374716901403
O -6.6987712175836815 -7.937024711996578 8.406682324928934
H -7.000505796242033 -7.775518109944248 7.5001288414347815
H -7.296011387242503 -7.402180831689395 8.950932403242074
O 1.7912656141666847 -5.931775837696918 7.012945723978158
H 2.0831864195910197 -6.007026066697065 7.93386211719517
H 2.5607546916513337 -5.564221986036367 6.552779808181128
O -3.0303941347111203 3.4682517098349037 4.000863192134937
H -2.893111830846161 3.4697772210841387 4.960091318683027
H -2.3561512778144165 2.8565680841560672 3.6688968439907867
O 8.10491684753896 3.938699255014529 -4.173352276408608
H 8.379544846434518 3.923521065812349 -3.2442040418974702
H 8.901476451195325 4.219552453099135 -4.648300929684375
O 7.386954960570177 -2.9154052910914343 2.752813085281096
H 7.436604014372903 -2.916306197953345 3.7205431699241855
H 8.311243660417796 -2.9875923600659204 2.470959629196426
O -0.12065099191239037 6.9010619580900645 5.846940967041123
H -0.29322972588627394 6.945574462843864 6.799412790456658
H -0.20022860197424697 7.820466870802252 5.5514346984823355
O 5.78985102584349 -1.8539402043818338 11.971273211334992
H 5.830578191433322 -1.1592593902918669 12.645607862245294
H 5.472902151622051 -1.3935052912465222 11.179752493857656
O -4.02682954227942 -8.883993165154113 0.7399014093547422
H -4.090000466582653 -9.664943012770587 0.16973114817788737
H -4.9407733379787855 -8.723385407504894 1.0189602396854212
O -6.535252455155369 5.611665976633359 0.9661013390904623
H -6.521415978660702 5.585904596814858 -0.0024606156280063685
H -5.967696802432727 6.364960983750388 1.1883380543630078
O -0.0014597870770638559 -6.468028117860045 -2.255625918801989
H -0.4233084646564272 -5.650305690487176 -1.9517491643505076
H -0.3578218841453424 -6.597864451809343 -3.147315621815153
O -0.35397310310747376 5.841901472207124 -5.484858708111371
H -0.5578281861824006 5.898720455155815 -4.53924670248687
H -0.38202206149793394 6.762471086269179 -5.786067582314719
O 3.8781934054132288 0.1898953351808148 -6.69622583912239
H 3.5902853057099917 0.46493975939457544 -5.812808130598165
H 3.4303365131765555 0.8093366889822267 -7.291774793933648
C -10.879446823990255 -11.974361035815257 -7.69755250634367
O -11.96504965002833 -12.468850792586366 -7.79636870869222
O -9.793843997952179 -11.479871279044144 -7.59873630399512
O -0.68744621857289 10.95920922813191 11.042686974067617
H -0.8024711093388488 11.169363264412038 11.981607584364065
H -0.2357872161181378 11.737105407367455 10.682348766084734
O -15.501549951052748 14.741518678148786 2.839996653774687
H -16.263407719874863 14.996951790792883 2.2984303864072086
H -15.708772378887264 13.838694916290315 3.124478752905876
O 1.6086367234832513 11.345089770567592 2.3410263004933203
H 1.5166530416797834 11.417857311055112 1.3791472830315208
H 0.8916023822629673 10.747024253731757 2.600142751886669
O -7.397482876754276 -10.8091601661251 11.776331138113127
H -7.470978059940286 -10.92903895413904 10.817584617320083
H -8.302758135624401 -10.935351039482143 12.098067852615863
O 4.3993922550340265 10.028856324532379 2.3877660601933552
H 4.096502737147434 10.206561337584354 1.4846347158194453
H 4.19028775903185 9.092664553094973 2.524814304051379
O 6.840409714555073 -7.435125049992464 8.497295760689962
H 6.170858658606501 -6.7352240235968885 8.468882847629647
H 7.665955316403039 -6.978399187592852 8.276302796582934
O -3.327367352606411 7.316856694358453 7.590524757771496
H -3.3961137410693025 7.616491368881839 6.6715795184908435
H -2.7622656839094843 6.531387712427268 7.538944463472852
O -0.30556257668577147 -1.2154743910827288 8.118310476919586
H -0.6486190973785201 -0.3813582763776546 8.472612449394337
H -0.8373773670191953 -1.8940200710331347 8.560702535283271
O 16.578063903940347 -15.17656781391286 -3.5136151472833257
H 16.825318346809894 -15.465238294253545 -2.622266757953346
H 15.74079896472255 -15.63369683584909 -3.6838573957419394
O 5.403590263462426 5.261995202047327 -17.240449247092027
H 5.62592785348713 4.516750314190819 -17.81850063761518
H 4.445155549138214 5.186470195881762 -17.11936738997892
O 11.951910007652327 9.912816897712231 4.180365989327029
H 12.327351271558971 9.369120726721073 3.4715601711329787
H 12.40858051917384 9.605605634230892 4.97788415701782
O 14.180774078120557 -10.710546306811567 -1.316179764163555
H 13.539652069918539 -10.131740103019844 -0.8769607914958999
H 13.661544508339006 -11.490820126832487 -1.5622191186465724
O 2.857003020018057 -12.386025415132233 6.693291639839886
H 2.343575603849287 -12.629326290673063 5.9083302846208365
H 2.388554489631013 -12.818865638833836 7.42278959009346
O 9.164263959543403 12.84020356556594 8.968090652862106
H 8.331447928591109 12.820461792927425 8.473120878126359
H 9.165377019586085 12.004044833401615 9.457783699599233
O 3.106178080323642 -17.845129345940325 3.4983540667892328
H 2.8747512071749863 -18.347939908683497 4.29370964593515
H 3.0828088839101913 -18.505062184676774 2.789196486757657
O 12.0842354764197 -1.8894879305443881 -8.668355080064368
H 12.019707368546488 -2.104245074419608 -7.725655313781983
H 11.233395145687613 -1.4730331986283156 -8.872311281648008
O -12.249390152758068 11.66702735228095 -1.8895198146494874
H -11.426984664284113 11.247402276056189 -1.5953576742723081
H -12.012069158054839 12.600932860315494 -1.9917997825601623
O -7.853142131560671 9.985002054295983 7.045761665984468
H -7.488503075118066 9.869207417329836 6.155482317989397
H -8.122998319161212 9.091519448127775 7.306200554763717
O 4.749015073889079 -6.88503962497226 1.4196044075189542
H 5.034744658681236 -6.804064087237535 0.49723304870349605
H 4.771375671264101 -5.975216536624072 1.752296300858117
O -13.569151683925702 -0.397493280145512 4.91565117634479
H -12.787406270061137 -0.7786447470685207 4.488374890946033
H -14.297159657301401 -0.9648862355487653 4.62064004238513