194

C -5.0710522388059704 1.0783507462686561 0.47044029850746183
C -3.8153522388059704 0.1782507462686569 0.19534029850746193
C -4.11845223880597 -1.3219492537313435 0.5608402985074619
C -2.96945223880597 -2.3874492537313436 0.7034402985074619
C -2.52015223880597 0.7359507462686565 0.7384402985074618
C -2.20305223880597 0.7852507462686571 2.097440298507462
C -1.5755522388059702 1.205650746268656 -0.18965970149253808
C -0.9533522388059701 1.2695507462686564 2.508640298507462
H -2.91125223880597 0.4298507462686567 2.840840298507462
C -0.32655223880597006 1.6562507462686575 0.21554029850746192
H -1.7850522388059702 1.178550746268657 -1.2573597014925382
C 0.004447761194029898 1.6956507462686563 1.569740298507462
H -0.7158522388059702 1.2676507462686573 3.5705402985074617
H 0.3943477611940298 1.9193507462686572 -0.5551597014925382
C -1.76045223880597 -2.1592492537313435 -0.1734597014925381
C -0.5287522388059701 -1.936549253731343 0.464840298507462
C -1.8068522388059702 -2.121249253731343 -1.5681597014925381
C 0.6114477611940299 -1.614449253731343 -0.2582597014925381
H -0.4544522388059702 -1.954049253731343 1.5506402985074619
C -0.6479522388059701 -1.8270492537313432 -2.2998597014925384
H -2.74345223880597 -2.290549253731343 -2.092259701492538
C 0.5698477611940298 -1.5506492537313434 -1.6506597014925382
H 1.5072477611940298 -1.351949253731343 0.2991402985074618
H -0.7173522388059701 -1.7640492537313435 -3.3840597014925375
C 1.7791477611940298 -1.082849253731343 -2.4255597014925376
H 1.4739477611940297 -0.9102492537313429 -3.464259701492538
H 2.1252477611940295 -0.1337492537313434 -2.0010597014925384
C 1.3965477611940298 2.0964507462686566 1.997440298507462
H 1.51704776119403 1.8448507462686567 3.057640298507462
H 2.1256477611940294 1.5207507462686571 1.4165402985074618
C 3.94864776119403 -1.4275492537313434 -3.522959701492538
H 4.81734776119403 -2.087049253731343 -3.615159701492538
H 3.4305477611940303 -1.3641492537313429 -4.484459701492538
H 4.26984776119403 -0.441449253731343 -3.176459701492538
C 2.60904776119403 -3.4296492537313434 -2.8992597014925376
H 1.9825477611940296 -3.869549253731343 -2.119359701492538
H 2.06294776119403 -3.373349253731343 -3.845759701492538
H 3.5215477611940305 -4.019849253731343 -3.0234597014925377
C 3.7281477611940304 -2.060049253731343 -1.156659701492538
H 3.9048477611940298 -1.032549253731343 -0.8295597014925382
H 3.12924776119403 -2.623249253731343 -0.4404597014925382
H 4.68244776119403 -2.5769492537313434 -1.3005597014925383
C 3.1110477611940297 3.755250746268656 2.588740298507462
H 3.40124776119403 4.809350746268656 2.534540298507462
H 2.9823477611940303 3.461750746268656 3.634840298507462
H 3.86514776119403 3.1392507462686563 2.091540298507462
C 1.99744776119403 3.9574507462686572 0.40494029850746194
H 2.67914776119403 3.230350746268657 -0.04295970149253803
H 1.03214776119403 3.981150746268657 -0.10175970149253821
H 2.4399477611940297 4.958250746268657 0.368240298507462
C 0.7418477611940297 4.4992507462686575 2.475440298507462
H -0.18475223880597014 4.424250746268656 1.901240298507462
H 0.57844776119403 4.189650746268656 3.511940298507462
H 1.1210477611940297 5.524350746268658 2.4432402985074617
N 3.00114776119403 -2.025349253731343 -2.490159701492538
N 1.7831477611940298 3.586450746268657 1.862540298507462
C -3.55075223880597 -3.8435492537313434 0.6444402985074619
H -2.62515223880597 -2.2736492537313433 1.7424402985074618
H -4.67195223880597 -1.3478492537313436 1.5102402985074619
H -4.83415223880597 -1.6757492537313432 -0.1945597014925382
H -3.7169522388059697 0.17335074626865676 -0.900559701492538
H -3.9132522388059705 -4.043149253731343 -0.34225970149253815
H -4.35435223880597 -3.9354492537313432 1.3449402985074619
H -2.78115223880597 -4.545049253731343 0.8904402985074619
H -5.24235223880597 1.138950746268657 1.5249402985074618
H -5.92805223880597 0.6501507462686567 -0.006059701492538094
H -4.89895223880597 2.059650746268657 0.08004029850746197
C 2.284410899268018 -1.5730428204439282 3.3295255376759836
O 2.8655722917531286 -1.1662462698674434 2.3352702882938945
O 1.446076147831123 -0.9344480148412486 3.9760725064961275
O 2.4446882282550395 -2.6862758595965204 3.8430153260378055
O -1.1618852945477691 10.102875459400618 4.9648667149748835
H -1.309606133650215 9.261602861757938 5.422476075729672
H -0.21559483067918883 10.272393805366365 5.0863567667175005
O -1.7469403314924112 2.6203817015662585 6.569275254263569
H -1.2470123764138337 2.7633324553266285 7.386957636750983
H -2.6404184563738773 2.9275448223518827 6.7844719128982565
O -5.290021660167673 2.3929081084820893 5.9728496634879935
H -5.360681116241242 2.2867290713113273 6.93342272694172
H -6.162000954114639 2.7231332778976354 5.709097141770715
O 2.915723163303571 9.50848047786007 0.921000680658489
H 2.8448696347205074 9.586499217789036 -0.042254327429829486
H 1.9951196205621962 9.495770369240345 1.223142227836138
O -4.178800534623038 6.0399467213006455 -1.3668800894719653
H -4.22718240976435 6.01171134597756 -0.39949737583781314
H -4.746111987603321 5.3075870453833085 -1.6510789014111649
O 6.63117560976312 4.191880256971954 -9.569180464404246
H 7.162892668977144 4.081024655357844 -8.766712171303787
H 5.716644123164981 4.146067280906514 -9.25217056622341
O -1.1730288063651337 4.298176081466049 -2.0485646866676817
H -2.140093304719977 4.249277478321444 -2.011652093529261
H -0.9552583800571445 5.055381744978317 -1.4844923784743247
O -4.471444185109405 9.88938437955987 2.0259586149309685
H -3.5958784424023102 9.631846770290844 1.7003417128669471
H -4.447776013693659 9.660424848743288 2.96722334666699
O -5.233882068415016 -5.527361015953945 -5.2476207475274705
H -5.676873334736945 -5.527670179340946 -4.385805222440752
H -4.551398143955681 -6.209665434045091 -5.160223274978853
O -6.275288646537517 1.1945256072739407 -5.3740858874958395
H -5.687894052554081 1.5430883690189936 -4.686743942766946
H -7.120314584690227 1.067112124581482 -4.917293907950109
O 8.945977193350345 -2.248923702257608 -1.4324311690702127
H 8.257229349597665 -2.710376262559035 -1.9340837373057354
H 8.621000806158847 -1.3380429617156708 -1.3720277868989201
O -1.393276678033955 7.362218337618152 8.240714738277468
H -1.137101324781085 7.331209821680159 7.306701881179081
H -1.1631484374787884 6.482627587381817 8.575861048562487
O -0.7774090957410484 2.175250244764741 -4.345083001181274
H -0.710843492436849 2.2003586443521663 -3.3786949085254783
H -1.1050369250041099 1.2831057221198394 -4.534027703427923
O -2.9018847382158928 2.8569573332337135 4.20122893673223
H -2.853061120722748 2.9085131419651207 3.2348306700424905
H -3.7553541005952544 2.430277266868166 4.370036853448411
O -2.486549076034248 5.617981953477104 3.58012252297645
H -2.277784606275366 5.476028700106508 4.515661953959345
H -2.8954150635188047 6.496315292825238 3.562203439075942
O 1.9414619738281513 -4.770563818264375 7.970671097426944
H 2.4820733404360578 -4.5655477542660785 7.19306250649126
H 1.902879547856201 -3.932954614351147 8.456350170710905
O -2.928908622870279 1.937940557171892 -10.19046476658722
H -3.589316445036288 2.5840686474004717 -10.482607465177342
H -2.9123707910826284 2.039476610534962 -9.226940571620009
O 0.15059940483782253 -7.735587206142057 2.9586644304615284
H 0.6249151887043705 -8.062487461306938 3.737848694450605
H 0.040151939150751215 -8.52280892327729 2.4045477733450324
O -4.031206080987686 0.011634580587720045 -7.090668068133889
H -4.639402413927366 -0.14456126908535838 -6.352652191581336
H -4.6160558817672985 0.146639573991588 -7.851382407806848
O 1.4918022694070274 -7.075217287672929 -2.529418471609091
H 1.2937375001285936 -6.826198424334071 -1.614144026553345
H 1.1344717146768302 -6.342883440575959 -3.053788527344887
C -4.6853902706531425 11.418333315186295 13.55244562117759
O -4.38856522407653 12.462132978594425 13.047276924904882
O -4.982215317229755 10.374533651778167 14.057614317450298
O -10.154320806579344 -14.8811734076646 -2.0457692403422043
H -10.086799995206034 -13.928797400180361 -2.2112631595654704
H -10.267866659642285 -15.264640545580498 -2.9283916044882754
O 8.992635943968049 -3.89200789504137 -13.9910175281917
H 9.230821025788721 -4.318737159981807 -13.154275418493928
H 9.606517889766781 -3.145079494733061 -14.055893299749568
O 1.1323924344936573 6.28543582910124 15.783728181132084
H 1.4029364652183913 7.098427030853955 15.331159302162384
H 0.3455431425382196 5.997386142074829 15.297048087175884
O 5.646839176507926 4.784843798915439 6.687313507775765
H 4.7766925419084005 4.942672360593362 6.291204512278568
H 5.486885412548523 4.857581555868751 7.6402489496649935
O 0.6205205104899032 -9.325874826242394 13.728280221424832
H 0.9760155433564925 -9.445652632990258 12.834835250809487
H 1.305431705242298 -8.81588201723344 14.186282333168872
O 2.5862636116898354 -8.041395013855489 -9.211562928115598
H 2.972071516378744 -8.448937976192529 -10.001517579617255
H 2.5145242127072027 -8.774080536957637 -8.581493624649589
O -11.759630445356006 -6.785235991086058 2.5775923812550845
H -11.914615690905741 -7.620585724307918 3.0435728033417373
H -11.982688878183659 -6.98626993645457 1.656293172173669
O -6.21687278125311 0.6604555416137261 -12.211317815149068
H -6.306709246420726 0.7142714123806071 -11.247989927833546
H -5.564076905074598 -0.04276584389161364 -12.346592244781126
O 19.614066656302228 8.889619391174877 5.202104167112747
H 19.44828498680271 9.118149464415076 4.275142571045908
H 20.381150222962347 9.430494030930166 5.442934750987753
O 2.9296549948592947 13.124360933622363 15.51707113187755
H 2.395089121238589 13.868196587182378 15.833164795453838
H 3.62552450069482 13.035485797921869 16.18552366228075
O 12.822939197401908 -11.83016719828785 -11.124237766408944
H 13.664924362598896 -11.967974964680817 -10.664849740868462
H 12.203889190522922 -12.411665459479519 -10.657762895151993
O 4.206144385305633 -13.946124957295876 -8.219107792339475
H 3.8402660590962974 -14.494032476598088 -8.92966937137563
H 5.067368143509341 -14.349190083162613 -8.032576060681006
O 2.3858062753189895 -6.683886998985368 -12.351527077710703
H 2.4082000259046525 -6.476735933738743 -11.405189763111993
H 1.5134457662735832 -6.374491759096481 -12.638273781426957
O -11.768167380578122 -7.108376949444445 -1.0625151593969875
H -11.704384488244838 -7.644494117503767 -0.25785530476420204
H -12.704841918958664 -6.864289058805159 -1.1075024364080375
O 6.037400826951475 -15.327409153474548 -0.38422829154212623
H 5.268161759792788 -14.795135364062975 -0.6370587239712089
H 5.727696015012083 -15.838902843689304 0.378280120629225
O -0.9751665661406861 12.404563780209502 15.744851404220164
H -1.6932622679051836 11.754047597642087 15.756453827470105
H -0.8896370198342414 12.67532384556659 16.671315449942632
O 4.445560306131103 11.106119350354934 6.871278242816327
H 3.9159610524539743 10.72074797856697 6.1571487775154665
H 4.344875844983068 12.061925518560193 6.747750301021334
O -19.668160702474268 -2.6659709413697836 8.09524170967509
H -20.050748421861854 -2.6297282838465135 8.98478117684305
H -18.719061499487097 -2.7810039298798443 8.253165928031736
O -15.395874026001156 9.009876535576197 -8.592501727620093
H -15.155222261705038 9.01371409011745 -7.653864759236516
H -16.103001003222236 8.349867798748845 -8.650137217535063
O 12.493082065817678 -9.349268679440764 -8.778334720948909
H 13.340124341735208 -9.430461814148032 -9.24190177606053
H 11.832741130186049 -9.411616322645884 -9.484751428293738