194

C -5.0710522388059704 1.0783507462686561 0.47044029850746183
C -3.8153522388059704 0.1782507462686569 0.19534029850746193
C -4.11845223880597 -1.3219492537313435 0.5608402985074619
C -2.96945223880597 -2.3874492537313436 0.7034402985074619
C -2.52015223880597 0.7359507462686565 0.7384402985074618
C -2.20305223880597 0.7852507462686571 2.097440298507462
C -1.5755522388059702 1.205650746268656 -0.18965970149253808
C -0.9533522388059701 1.2695507462686564 2.508640298507462
H -2.91125223880597 0.4298507462686567 2.840840298507462
C -0.32655223880597006 1.6562507462686575 0.21554029850746192
H -1.7850522388059702 1.178550746268657 -1.2573597014925382
C 0.004447761194029898 1.6956507462686563 1.569740298507462
H -0.7158522388059702 1.2676507462686573 3.5705402985074617
H 0.3943477611940298 1.9193507462686572 -0.5551597014925382
C -1.76045223880597 -2.1592492537313435 -0.1734597014925381
C -0.5287522388059701 -1.936549253731343 0.464840298507462
C -1.8068522388059702 -2.121249253731343 -1.5681597014925381
C 0.6114477611940299 -1.614449253731343 -0.2582597014925381
H -0.4544522388059702 -1.954049253731343 1.5506402985074619
C -0.6479522388059701 -1.8270492537313432 -2.2998597014925384
H -2.74345223880597 -2.290549253731343 -2.092259701492538
C 0.5698477611940298 -1.5506492537313434 -1.6506597014925382
H 1.5072477611940298 -1.351949253731343 0.2991402985074618
H -0.7173522388059701 -1.7640492537313435 -3.3840597014925375
C 1.7791477611940298 -1.082849253731343 -2.4255597014925376
H 1.4739477611940297 -0.9102492537313429 -3.464259701492538
H 2.1252477611940295 -0.1337492537313434 -2.0010597014925384
C 1.3965477611940298 2.0964507462686566 1.997440298507462
H 1.51704776119403 1.8448507462686567 3.057640298507462
H 2.1256477611940294 1.5207507462686571 1.4165402985074618
C 3.94864776119403 -1.4275492537313434 -3.522959701492538
H 4.81734776119403 -2.087049253731343 -3.615159701492538
H 3.4305477611940303 -1.3641492537313429 -4.484459701492538
H 4.26984776119403 -0.441449253731343 -3.176459701492538
C 2.60904776119403 -3.4296492537313434 -2.8992597014925376
H 1.9825477611940296 -3.869549253731343 -2.119359701492538
H 2.06294776119403 -3.373349253731343 -3.845759701492538
H 3.5215477611940305 -4.019849253731343 -3.0234597014925377
C 3.7281477611940304 -2.060049253731343 -1.156659701492538
H 3.9048477611940298 -1.032549253731343 -0.8295597014925382
H 3.12924776119403 -2.623249253731343 -0.4404597014925382
H 4.68244776119403 -2.5769492537313434 -1.3005597014925383
C 3.1110477611940297 3.755250746268656 2.588740298507462
H 3.40124776119403 4.809350746268656 2.534540298507462
H 2.9823477611940303 3.461750746268656 3.634840298507462
H 3.86514776119403 3.1392507462686563 2.091540298507462
C 1.99744776119403 3.9574507462686572 0.40494029850746194
H 2.67914776119403 3.230350746268657 -0.04295970149253803
H 1.03214776119403 3.981150746268657 -0.10175970149253821
H 2.4399477611940297 4.958250746268657 0.368240298507462
C 0.7418477611940297 4.4992507462686575 2.475440298507462
H -0.18475223880597014 4.424250746268656 1.901240298507462
H 0.57844776119403 4.189650746268656 3.511940298507462
H 1.1210477611940297 5.524350746268658 2.4432402985074617
N 3.00114776119403 -2.025349253731343 -2.490159701492538
N 1.7831477611940298 3.586450746268657 1.862540298507462
C -3.55075223880597 -3.8435492537313434 0.6444402985074619
H -2.62515223880597 -2.2736492537313433 1.7424402985074618
H -4.67195223880597 -1.3478492537313436 1.5102402985074619
H -4.83415223880597 -1.6757492537313432 -0.1945597014925382
H -3.7169522388059697 0.17335074626865676 -0.900559701492538
H -3.9132522388059705 -4.043149253731343 -0.34225970149253815
H -4.35435223880597 -3.9354492537313432 1.3449402985074619
H -2.78115223880597 -4.545049253731343 0.8904402985074619
H -5.24235223880597 1.138950746268657 1.5249402985074618
H -5.92805223880597 0.6501507462686567 -0.006059701492538094
H -4.89895223880597 2.059650746268657 0.08004029850746197
C 0.7953605105418164 -1.8679898978799083 4.191053277801479
O -0.2205632943848258 -1.3935471996391713 3.7067202856675316
O 1.8664850058960571 -1.2664071636656606 4.330416090084501
O 0.9095485677298851 -3.0231363882315416 4.616783307073455
O -4.084090216862708 4.704054911606258 -6.015261643444708
H -3.5313230671740636 4.161864303800393 -6.597880884400755
H -4.770294964061804 4.092712528104982 -5.708104551134602
O 3.6795245332889324 -5.1646232289610845 6.495068200446004
H 4.271666508538259 -4.406191260587185 6.380542275886023
H 3.387695514618591 -5.371797836977976 5.594581415448605
O -0.2571278977782292 -4.418530850779043 9.91960761227693
H -0.9050075168934182 -5.1341599946591145 10.003835187717732
H -0.36265594332821394 -4.113605054884935 9.005908517990008
O -7.887415100721922 -4.93294854432098 -1.0510216480309778
H -7.728525515018632 -4.395944558226164 -0.26023205820741646
H -8.527050273528516 -5.598862465636084 -0.7571042456754511
O -2.328634028368484 1.3671330941816555 6.755742901267689
H -2.374587841337487 1.5294591090113294 5.801538589349571
H -2.5957832268698717 0.44032951886682925 6.848631990097972
O 10.757855821758902 -0.20531758262167243 -2.366591281109943
H 10.520536560605194 -1.1076933214626399 -2.1051243594225575
H 11.272105564467216 0.12823799133502567 -1.6160915639168927
O 1.6889935948207264 6.64031540073022 6.664923367810822
H 1.1324790380030545 6.18141136342963 7.311967407656062
H 1.4146721879840713 6.267125810694963 5.8137834028576565
O 4.845828110626537 5.576166567174539 -1.933818628352805
H 5.6560637056086875 5.119696288856139 -2.206069473229076
H 5.138891867481811 6.172605929467726 -1.228598332399002
O -7.210039513393564 -6.312303244957362 2.836862605470235
H -7.137946889640022 -6.980664382846436 3.5347618817701543
H -7.712425160068457 -5.594656116954292 3.2510524242538397
O -0.3583097757406608 5.3234250927173346 -5.592489982421118
H -0.5418060134597629 5.235574328264498 -6.539896300126457
H -0.3603791763883679 6.280579560720774 -5.441450298026549
O -2.0533746400555346 6.917883820460338 -0.9685044402760097
H -2.222277048597711 6.297025078525856 -1.693055167176608
H -2.6483778945637666 6.622009585317686 -0.263244553139812
O -7.744753472079466 5.906667175596635 2.8824829603578617
H -8.010898006701453 6.414632451368686 3.663575606719784
H -6.806253251773956 6.1212559741640415 2.772342466823909
O 4.6949347615642685 -6.337245932667566 -3.2563363447574494
H 5.116014332198174 -6.665521954756972 -4.064973596815454
H 4.092495605625498 -7.051475779007346 -2.999617170776939
O -0.12516704378633392 8.35486676374456 8.702062938629595
H 0.2810161079812348 8.223685460259524 9.57199056190416
H 0.6303975794230778 8.453606930548826 8.103452527833154
O 10.18113616290789 0.8818728254045505 3.1286447921509586
H 10.194298024107713 0.8494523357378956 4.097016122870499
H 11.092142922641601 0.6704956557408686 2.874975085318522
O -4.347216845209783 -8.125172492375981 -2.7329841723847244
H -5.168085177321976 -8.06687815947132 -3.2445937002343794
H -4.599924107725629 -7.818387443404147 -1.8492512277124695
O 0.4313040151326075 -5.8970925023609135 -6.916199463224507
H 1.1860688784246065 -5.721574811425039 -7.497999169488055
H 0.7250281557373977 -5.578917267995595 -6.049335809722671
O 3.0077009768878575 -1.8896099954074712 -7.766446659543118
H 2.8699566675225303 -1.810436649323272 -6.810556789627497
H 3.52868333224799 -1.1048040533042225 -7.993644729391523
O -4.987874636767982 1.0170018853159148 7.412624721140391
H -4.3011270561677915 1.6872371412184783 7.277977704147771
H -5.227016231717075 1.1113338877556505 8.346902364660194
O 2.0736826037428604 -11.114800513998706 1.3207049164213203
H 1.6457042210678456 -10.705481300441605 0.553724054681032
H 1.9902105813536357 -10.448014740058749 2.0188389275177174
C -7.717013475996863 -10.210807066050556 4.710320803424631
O -6.8285953898875436 -10.547631655234717 3.9822543519967577
O -8.605431562106183 -9.873982476866392 5.438387254852504
O -2.6868861168411198 -4.410274956396153 -10.176183106683753
H -1.8610623343405397 -4.900263019324183 -10.306160548359117
H -3.1241124387232655 -4.455220244303183 -11.039765765639087
O -12.305079283469338 6.2579488597163575 11.790626985591265
H -12.258343377224517 6.276709831598449 12.758320706714594
H -11.43350047690528 6.573320456620701 11.50804410551114
O 14.204602016996041 3.964744766330712 3.5354526291904547
H 14.288946181980597 4.261199373238339 2.6167752730004246
H 14.853823575005972 3.2493761616757366 3.6110904001065114
O 3.8830240656200203 0.6469354267326723 9.703298930918551
H 3.467184638418453 0.39414544347038355 8.865359701590478
H 4.767669604898469 0.2546820885885812 9.65328360477186
O 2.472809262284837 -13.459949438027305 -16.08641767542061
H 3.303252608952122 -13.60723215630253 -16.56353297152156
H 2.509823777506814 -12.52478284908365 -15.835309489798611
O 14.809660285448164 0.7293483298851793 1.5525199064609634
H 14.943373288148385 0.6691766433223272 2.5103651747298388
H 14.404259740459166 1.6004799598548727 1.4270526769188776
O -9.341967083437686 9.479933430132967 13.766871757551119
H -9.299672283045776 9.467873450232844 14.734876439174414
H -8.431710015798211 9.29550382924313 13.490502914466369
O 7.1678113240079195 6.756865817895433 -4.918457409834704
H 7.920036004940943 7.143221543666531 -5.391590202461781
H 7.168740094887342 5.828401129361648 -5.195791871866593
O 6.817593325544828 -5.299900906050078 8.09210704638666
H 6.765421287470025 -5.2341716543624255 9.057469724770128
H 6.149619088856052 -4.6719639637415415 7.778311635482909
O -1.1715093605983977 4.22730232826613 13.910477310051006
H -1.320440631740457 3.2803536549900363 14.052163736912078
H -1.1789815502305245 4.323724783450096 12.946315072241209
O 5.951993792570759 -4.005275271218041 -20.428154869646924
H 5.6297381283006445 -4.518523327631831 -19.67204966775152
H 5.436082179130805 -3.185840764257847 -20.391764758068568
O -0.8328238174826526 3.42548945111363 17.57445792410074
H -1.2558177168592541 4.285613751120849 17.716689096940136
H -0.6601981144078319 3.404330504786869 16.621192688225506
O 3.490193493706835 -3.426807313655659 -16.953978269466443
H 3.514400879234781 -4.119390300238327 -16.27669681683236
H 2.5547595017999356 -3.373777622381252 -17.201188792965066
O 2.2022598693867668 11.123588908259615 -10.30831279846723
H 2.089392315613037 12.037909025481339 -10.608724175496782
H 1.65470678346102 11.070024938480666 -9.51064214993194
O -11.513842101004128 14.438348643228277 2.3473829427068056
H -12.013990729105023 15.158941464035665 1.9356006054099646
H -10.601700683575555 14.765068175328052 2.3620228284952898
O -4.263549679398223 -6.800288586123256 -21.538004954654525
H -3.460970979222445 -6.514367028002446 -21.99961480022319
H -4.208673218876134 -6.358238577437749 -20.67745727543988
O -1.3813094568268318 -10.660258488635314 -8.793361774084882
H -1.5863966791211408 -10.583361078811226 -9.737286228961413
H -2.1508447085986804 -11.118250157790914 -8.423198200019979
O -8.705588844570709 -10.055423207286745 -16.048222699361126
H -9.275744348619698 -9.669984764215217 -16.730371704128586
H -8.168514178062216 -10.702197719116638 -16.530089359073116
O 6.395823753216816 -12.714326601341154 -5.0316030323871255
H 6.253040836511812 -13.147261654959564 -4.176531319052134
H 5.53298953476197 -12.328802880867654 -5.245730370005849
O 9.307649398285673 -14.631495485311152 -3.8501810379802697
H 10.160437954518436 -14.792816197954107 -4.281104073951667
H 9.180670180888137 -15.407917595088726 -3.2844894876653887