194

C -5.0710522388059704 1.0783507462686561 0.47044029850746183
C -3.8153522388059704 0.1782507462686569 0.19534029850746193
C -4.11845223880597 -1.3219492537313435 0.5608402985074619
C -2.96945223880597 -2.3874492537313436 0.7034402985074619
C -2.52015223880597 0.7359507462686565 0.7384402985074618
C -2.20305223880597 0.7852507462686571 2.097440298507462
C -1.5755522388059702 1.205650746268656 -0.18965970149253808
C -0.9533522388059701 1.2695507462686564 2.508640298507462
H -2.91125223880597 0.4298507462686567 2.840840298507462
C -0.32655223880597006 1.6562507462686575 0.21554029850746192
H -1.7850522388059702 1.178550746268657 -1.2573597014925382
C 0.004447761194029898 1.6956507462686563 1.569740298507462
H -0.7158522388059702 1.2676507462686573 3.5705402985074617
H 0.3943477611940298 1.9193507462686572 -0.5551597014925382
C -1.76045223880597 -2.1592492537313435 -0.1734597014925381
C -0.5287522388059701 -1.936549253731343 0.464840298507462
C -1.8068522388059702 -2.121249253731343 -1.5681597014925381
C 0.6114477611940299 -1.614449253731343 -0.2582597014925381
H -0.4544522388059702 -1.954049253731343 1.5506402985074619
C -0.6479522388059701 -1.8270492537313432 -2.2998597014925384
H -2.74345223880597 -2.290549253731343 -2.092259701492538
C 0.5698477611940298 -1.5506492537313434 -1.6506597014925382
H 1.5072477611940298 -1.351949253731343 0.2991402985074618
H -0.7173522388059701 -1.7640492537313435 -3.3840597014925375
C 1.7791477611940298 -1.082849253731343 -2.4255597014925376
H 1.4739477611940297 -0.9102492537313429 -3.464259701492538
H 2.1252477611940295 -0.1337492537313434 -2.0010597014925384
C 1.3965477611940298 2.0964507462686566 1.997440298507462
H 1.51704776119403 1.8448507462686567 3.057640298507462
H 2.1256477611940294 1.5207507462686571 1.4165402985074618
C 3.94864776119403 -1.4275492537313434 -3.522959701492538
H 4.81734776119403 -2.087049253731343 -3.615159701492538
H 3.4305477611940303 -1.3641492537313429 -4.484459701492538
H 4.26984776119403 -0.441449253731343 -3.176459701492538
C 2.60904776119403 -3.4296492537313434 -2.8992597014925376
H 1.9825477611940296 -3.869549253731343 -2.119359701492538
H 2.06294776119403 -3.373349253731343 -3.845759701492538
H 3.5215477611940305 -4.019849253731343 -3.0234597014925377
C 3.7281477611940304 -2.060049253731343 -1.156659701492538
H 3.9048477611940298 -1.032549253731343 -0.8295597014925382
H 3.12924776119403 -2.623249253731343 -0.4404597014925382
H 4.68244776119403 -2.5769492537313434 -1.3005597014925383
C 3.1110477611940297 3.755250746268656 2.588740298507462
H 3.40124776119403 4.809350746268656 2.534540298507462
H 2.9823477611940303 3.461750746268656 3.634840298507462
H 3.86514776119403 3.1392507462686563 2.091540298507462
C 1.99744776119403 3.9574507462686572 0.40494029850746194
H 2.67914776119403 3.230350746268657 -0.04295970149253803
H 1.03214776119403 3.981150746268657 -0.10175970149253821
H 2.4399477611940297 4.958250746268657 0.368240298507462
C 0.7418477611940297 4.4992507462686575 2.475440298507462
H -0.18475223880597014 4.424250746268656 1.901240298507462
H 0.57844776119403 4.189650746268656 3.511940298507462
H 1.1210477611940297 5.524350746268658 2.4432402985074617
N 3.00114776119403 -2.025349253731343 -2.490159701492538
N 1.7831477611940298 3.586450746268657 1.862540298507462
C -3.55075223880597 -3.8435492537313434 0.6444402985074619
H -2.62515223880597 -2.2736492537313433 1.7424402985074618
H -4.67195223880597 -1.3478492537313436 1.5102402985074619
H -4.83415223880597 -1.6757492537313432 -0.1945597014925382
H -3.7169522388059697 0.17335074626865676 -0.900559701492538
H -3.9132522388059705 -4.043149253731343 -0.34225970149253815
H -4.35435223880597 -3.9354492537313432 1.3449402985074619
H -2.78115223880597 -4.545049253731343 0.8904402985074619
H -5.24235223880597 1.138950746268657 1.5249402985074618
H -5.92805223880597 0.6501507462686567 -0.006059701492538094
H -4.89895223880597 2.059650746268657 0.08004029850746197
C -2.0871052717356946 4.1694583779069525 -0.636903130213565
O -3.247843458407123 4.0722131598840505 -0.26947187382075066
O -1.1470810345410776 3.484867155090346 -0.21699747982393136
O -1.672853151835913 4.967519923363451 -1.4855145461290729
O -7.486406953079962 4.9905000973901785 -2.334191764644828
H -6.563418332720206 4.848554744746812 -2.592863140040997
H -7.979028363116943 4.342000863437569 -2.8592963582602837
O -3.5514291144528114 -3.1803231648718233 9.841353597378818
H -4.4547980653486885 -3.02064088238013 10.153432856727347
H -3.001820240296863 -2.6409980388985383 10.429588616944068
O 1.6106745024772882 7.667685107635837 5.65468103024862
H 1.7395599634804992 7.509372257495351 4.707425554507051
H 1.4770812689759247 6.781835960972321 6.023985892954448
O -3.8783397734137295 -6.443608391802879 -2.4711595749814377
H -3.5774681587698938 -6.012621014979073 -1.6570996819636388
H -3.3392046891258533 -7.247063130001468 -2.5236551829514404
O 2.6572858881837584 -4.5328574059969045 -6.889257356832417
H 3.37582152341845 -5.136068870637433 -7.131764731409167
H 2.6729650145502153 -4.527696163880825 -5.920397474870014
O 4.02348222647732 7.03696249212783 -5.10340616395086
H 3.621298480581093 7.385545399102776 -5.913162638702236
H 4.563390622539815 7.771639436482507 -4.775213148188951
O 7.953975828039245 -0.5624922817966247 -1.929592990727424
H 8.087609860989993 -0.9016584644079977 -2.8274101228373816
H 8.718494377942411 -0.8967599758351399 -1.4369080611059313
O -2.6547573407027873 -9.13445635857574 -4.498581477744332
H -2.4095618269578365 -9.330157654018656 -5.415395264672362
H -2.8561662901626086 -8.186659458367894 -4.507380076149052
O -9.484806321797757 0.8328699096251744 -4.020316932150668
H -10.129492116146569 0.1420014062116155 -3.805728268759633
H -9.129222182979655 0.5622744489953282 -4.880142473296959
O -0.3777445668636159 8.393016575024365 -2.164834088380859
H -0.2830882117298148 7.713590476267841 -1.4804455235572807
H -0.40893050527364805 7.8892665618865525 -2.992013213969229
O 0.3014862847357711 -4.34071710031446 -3.4746605433910083
H -0.0551153854919717 -3.7915295697670124 -2.7603807228850794
H -0.26286985679627106 -5.128387052403765 -3.468325214615324
O -9.642402026430322 -1.1269991495723537 2.2664379308068594
H -9.182091711867738 -1.96437266086117 2.4273334677217613
H -9.935893911848176 -1.1944506551144922 1.3454196074853462
O 4.335720313029198 7.136110475202615 0.490742433666169
H 5.121669659408606 6.586796119528034 0.35108313223728793
H 3.6116728124019817 6.606005930515778 0.1250836680966304
O -3.6288313397382534 -5.969227732046356 3.9079425371943857
H -4.454158372699355 -6.474331005772415 3.8562382971859983
H -2.9878971278027144 -6.603747033781991 4.262273647874059
O 6.260172806157194 -4.267311792066719 0.7698341745571375
H 5.960071082160247 -3.975087117781843 1.64362536923305
H 5.445199780975564 -4.321297410189622 0.24842601815546672
O -3.099565513026205 9.49391530266012 5.060838271112044
H -3.467868677445644 10.15957927427128 4.460661952954215
H -3.734211450800882 8.762953285498929 5.017467688527306
O 0.9698612276818843 -8.008856550880278 -1.5146080119200973
H 1.7083742547276364 -8.604877350681772 -1.7103759152845408
H 0.2818000311147717 -8.27445525867958 -2.1430911544895492
O -2.70021540712819 -6.567995833148959 1.4221740308965616
H -2.390048934218144 -6.588917040980443 2.3399574579889313
H -1.8842986359334721 -6.556635520767588 0.8995721651461757
O -7.370774217887914 -0.9488251050811152 0.07400337062864304
H -7.3668869784295214 -1.02444921274836 -0.8920366081553239
H -7.996095390259953 -0.22981991054139295 0.24997753324393845
O 2.753612550842683 -0.9932589725816878 4.394786231039997
H 2.3108906021387043 -0.5886486046885648 5.15587432267535
H 3.373800339391975 -0.3116612875651019 4.095197100705855
C -0.663306168895577 -10.592252617889878 16.744079831543747
O -1.3457771774789098 -10.765033095441552 17.712169954579956
O 0.01916483968775573 -10.419472140338204 15.775989708507538
O -14.942795935935983 8.523247960601212 12.42042452182668
H -14.932157395726712 8.115276070058869 11.541554158866635
H -15.092663336112029 9.463475325154771 12.240218501924065
O -1.0433980228596682 4.884727806516951 -11.83166399844546
H -1.1571101122630334 4.065604308713898 -11.326615869085083
H -0.18482663191508486 4.773983648109699 -12.267040665631649
O -10.679718912891097 4.104376468805295 -1.3621463066051387
H -9.996521999742194 3.7446871906787442 -1.9476656982264662
H -11.205921300516865 3.3297973686172706 -1.1129471711554946
O 3.5102365069431234 -1.75327672006323 -7.173229762446795
H 3.1315526539806573 -0.8761128339710165 -7.011521960096044
H 2.8549689027982135 -2.1907338681843167 -7.7373375135156435
O -0.7202998246573882 -9.220058887407953 -11.912381251956832
H -1.5185330728035933 -9.18561673908426 -12.46065561472862
H -0.7722590558745087 -10.084362144166988 -11.477361639816127
O 4.816633194430848 -6.660821909770434 6.3153047675157215
H 5.096996492767802 -5.832590682101264 5.897696324881662
H 5.500267883817933 -7.296766651722331 6.056114025107049
O -14.908751297600249 14.141706961050579 4.26136094740333
H -14.780962241874285 13.677918684066462 3.4202083166229382
H -15.320105631413313 13.477586294537694 4.83467874467086
O -0.8289202182825761 18.939265295943276 -6.291278577383576
H -0.729814572092268 19.533093717764896 -5.531993892150135
H -0.5158105277110092 19.46540754442603 -7.042343554820076
O 15.011275658454924 1.5274780810486188 -2.669389187518205
H 14.74229872649206 1.8425858504237986 -3.5453605687009717
H 15.012667615209583 2.327754861185733 -2.1230220198280474
O -11.888025504444585 8.417717719057297 18.29294133879482
H -11.89242293343458 8.834591861881314 17.418204825001652
H -11.465916063089447 9.076831793201553 18.864215529603236
O 10.289277677016567 -11.342044504638881 -2.3413463697946617
H 10.538022091877298 -11.2214308621271 -3.2700798742057144
H 10.97340164597901 -11.93182929083375 -1.990504175405007
O -15.585378671682268 2.889771021652371 4.097817295341601
H -15.531038125853225 2.882181354784538 3.130368661596202
H -15.741963298408713 3.820777442965542 4.316152456153098
O 8.965684240919064 -5.176916652837705 15.18445317460214
H 8.139368831761793 -5.018539140137295 15.665168022469441
H 9.540488845450891 -4.44720603237498 15.460286496180435
O -10.273265837679466 11.409626631132275 2.2319186028698015
H -9.642471236861809 10.760415202600011 1.8861006600987666
H -10.020703145447188 12.236973250985248 1.7952590084369713
O 12.077123004828433 -0.3933998229967983 -16.578175854281664
H 12.431543044185332 -0.11939972377410513 -15.718944955030356
H 12.837270401523703 -0.3303149963986476 -17.175802982389555
O 3.04592046794438 -8.28338286750796 13.923105553594866
H 2.0977464930067242 -8.086945691174922 13.886418963330435
H 3.116564659881634 -9.169157249922355 13.536614821618105
O -0.3564436805493072 0.5904024708775988 -15.2420446236156
H 0.35369988243803885 0.7779011684946409 -14.609978396674506
H -0.10447282037581596 -0.2603099382631293 -15.631609800264396
O -5.878065496022844 -9.996812369477032 -9.812872835749028
H -5.7004978025128406 -10.572866188724763 -10.571555291359834
H -5.225318566826215 -10.272438101369321 -9.151878246782363
O 0.5075247449553597 16.04885629952305 13.299079727328069
H -0.17397012857146166 15.405579120636844 13.545507334103092
H 1.3387899659672975 15.563621705810856 13.410916508848908
O -11.673007872888007 9.930501204732415 -7.454242942039588
H -11.968033514659206 10.246693248666345 -8.321393343613835
H -11.611107402519785 8.96973787932316 -7.564079678228982