194

C -5.0710522388059704 1.0783507462686561 0.47044029850746183
C -3.8153522388059704 0.1782507462686569 0.19534029850746193
C -4.11845223880597 -1.3219492537313435 0.5608402985074619
C -2.96945223880597 -2.3874492537313436 0.7034402985074619
C -2.52015223880597 0.7359507462686565 0.7384402985074618
C -2.20305223880597 0.7852507462686571 2.097440298507462
C -1.5755522388059702 1.205650746268656 -0.18965970149253808
C -0.9533522388059701 1.2695507462686564 2.508640298507462
H -2.91125223880597 0.4298507462686567 2.840840298507462
C -0.32655223880597006 1.6562507462686575 0.21554029850746192
H -1.7850522388059702 1.178550746268657 -1.2573597014925382
C 0.004447761194029898 1.6956507462686563 1.569740298507462
H -0.7158522388059702 1.2676507462686573 3.5705402985074617
H 0.3943477611940298 1.9193507462686572 -0.5551597014925382
C -1.76045223880597 -2.1592492537313435 -0.1734597014925381
C -0.5287522388059701 -1.936549253731343 0.464840298507462
C -1.8068522388059702 -2.121249253731343 -1.5681597014925381
C 0.6114477611940299 -1.614449253731343 -0.2582597014925381
H -0.4544522388059702 -1.954049253731343 1.5506402985074619
C -0.6479522388059701 -1.8270492537313432 -2.2998597014925384
H -2.74345223880597 -2.290549253731343 -2.092259701492538
C 0.5698477611940298 -1.5506492537313434 -1.6506597014925382
H 1.5072477611940298 -1.351949253731343 0.2991402985074618
H -0.7173522388059701 -1.7640492537313435 -3.3840597014925375
C 1.7791477611940298 -1.082849253731343 -2.4255597014925376
H 1.4739477611940297 -0.9102492537313429 -3.464259701492538
H 2.1252477611940295 -0.1337492537313434 -2.0010597014925384
C 1.3965477611940298 2.0964507462686566 1.997440298507462
H 1.51704776119403 1.8448507462686567 3.057640298507462
H 2.1256477611940294 1.5207507462686571 1.4165402985074618
C 3.94864776119403 -1.4275492537313434 -3.522959701492538
H 4.81734776119403 -2.087049253731343 -3.615159701492538
H 3.4305477611940303 -1.3641492537313429 -4.484459701492538
H 4.26984776119403 -0.441449253731343 -3.176459701492538
C 2.60904776119403 -3.4296492537313434 -2.8992597014925376
H 1.9825477611940296 -3.869549253731343 -2.119359701492538
H 2.06294776119403 -3.373349253731343 -3.845759701492538
H 3.5215477611940305 -4.019849253731343 -3.0234597014925377
C 3.7281477611940304 -2.060049253731343 -1.156659701492538
H 3.9048477611940298 -1.032549253731343 -0.8295597014925382
H 3.12924776119403 -2.623249253731343 -0.4404597014925382
H 4.68244776119403 -2.5769492537313434 -1.3005597014925383
C 3.1110477611940297 3.755250746268656 2.588740298507462
H 3.40124776119403 4.809350746268656 2.534540298507462
H 2.9823477611940303 3.461750746268656 3.634840298507462
H 3.86514776119403 3.1392507462686563 2.091540298507462
C 1.99744776119403 3.9574507462686572 0.40494029850746194
H 2.67914776119403 3.230350746268657 -0.04295970149253803
H 1.03214776119403 3.981150746268657 -0.10175970149253821
H 2.4399477611940297 4.958250746268657 0.368240298507462
C 0.7418477611940297 4.4992507462686575 2.475440298507462
H -0.18475223880597014 4.424250746268656 1.901240298507462
H 0.57844776119403 4.189650746268656 3.511940298507462
H 1.1210477611940297 5.524350746268658 2.4432402985074617
N 3.00114776119403 -2.025349253731343 -2.490159701492538
N 1.7831477611940298 3.586450746268657 1.862540298507462
C -3.55075223880597 -3.8435492537313434 0.6444402985074619
H -2.62515223880597 -2.2736492537313433 1.7424402985074618
H -4.67195223880597 -1.3478492537313436 1.5102402985074619
H -4.83415223880597 -1.6757492537313432 -0.1945597014925382
H -3.7169522388059697 0.17335074626865676 -0.900559701492538
H -3.9132522388059705 -4.043149253731343 -0.34225970149253815
H -4.35435223880597 -3.9354492537313432 1.3449402985074619
H -2.78115223880597 -4.545049253731343 0.8904402985074619
H -5.24235223880597 1.138950746268657 1.5249402985074618
H -5.92805223880597 0.6501507462686567 -0.006059701492538094
H -4.89895223880597 2.059650746268657 0.08004029850746197
C -0.3652836032801967 0.9765869536387553 -4.55279946723315
O 0.2581195339238298 1.8293328362489514 -3.9396367752699692
O -0.03904690437581371 0.5052318407012903 -5.648256192939685
O -1.4188795638905771 0.4530086933847546 -4.172734023427898
O 1.5491599513046221 5.807466743150801 -9.237386262129691
H 1.1760129210571018 6.2970231981587945 -8.489012606742584
H 1.9486269061461505 6.495080557461804 -9.791078720682554
O 1.037839759426975 4.965797505047354 6.125709911724176
H 0.5408513567284174 4.139483825720756 6.02992062296559
H 1.954878884159021 4.709566901616263 5.9458570110636035
O 3.342065886993594 -1.8662976392436477 5.2565977791779375
H 4.1508171089301 -2.1158933951860575 4.784802509456266
H 3.3915057060205958 -0.9000845661186059 5.310911183755817
O 0.09659401175723448 -2.0239743450863417 -6.5021223917504605
H 0.18381725417592076 -2.2848562745838312 -7.431261822483889
H -0.5611420346467282 -1.3126072628433052 -6.519503757114341
O -4.605285732968072 6.533375182648408 -5.635946846548416
H -4.551188558098695 6.592443663507955 -4.670259647119896
H -4.936768947270236 5.637269685326239 -5.797426754292047
O 2.797405740656341 10.381899669368295 -0.5528940772196744
H 2.1633303855615162 10.319429631342523 -1.282971672623363
H 3.6566668020549535 10.455175841068929 -0.9947797811353256
O -2.260216456995255 9.423682543114827 0.7515763727648912
H -1.7412596736176074 9.147131684921863 -0.01859947515495952
H -3.008711154128343 8.808381794903143 0.7626498507093548
O -0.23540744429889449 -7.022625229695145 -4.596882606911883
H -0.0051664369426398515 -7.581311191411094 -3.839369285832245
H -0.605836423031641 -6.223003765213155 -4.193956026062852
O -8.133217092884028 0.14710511779395713 2.355687717203277
H -7.812844897760573 -0.7533689003013071 2.5152983566580147
H -7.980066069641493 0.2856532489397407 1.4089506239531102
O 0.6694947608318833 -2.7794214608537526 10.334298456667263
H 1.6322522051976835 -2.6732285809057728 10.36237927692929
H 0.3326307247044114 -1.8717460680206832 10.374422597894762
O -3.4109129624099004 6.259510899578701 6.626522532789275
H -3.607407844750308 5.831743408256591 7.473500744718024
H -4.199523164012404 6.089255389294102 6.089801976590625
O 5.958738569699997 -4.469028837129573 -2.5120948882393668
H 6.3435837377322954 -5.0121708300036065 -1.8079228005228647
H 5.973439036250779 -5.048122967924947 -3.288880462424123
O 0.5775756855867511 -0.9620209595112682 5.644086003732089
H 1.1824386381197227 -0.7830332335497794 4.90851033834597
H 0.880291879405473 -0.3667326322349864 6.346194725874544
O 4.235307141823933 -3.7447417736965884 3.205863473812431
H 4.38880967811205 -4.6339617217043445 2.852745629009597
H 5.123592512860488 -3.3637673702652564 3.274925386851305
O 1.5710393935992983 2.9994510104197016 -7.2733275518496905
H 2.2184619015278955 3.350390607839135 -7.903131372170379
H 0.983052239295306 3.749803686532683 -7.099534824373602
O 2.478441941670189 8.11241565098383 -1.2913027004103768
H 2.3364615113788365 7.2213368355655705 -0.9380500160227379
H 2.8788911096347105 7.958680324055073 -2.160191564092396
O 7.253987222507197 -4.765763057215481 1.7696449761162814
H 6.914761242886957 -5.3380870270254785 1.0651321194333
H 7.308446265165147 -5.350523411318656 2.5403923311178467
O -4.937876346044579 -1.4726513349443255 8.56889024632155
H -5.512897856804745 -2.1965878318602607 8.859120443744526
H -4.089772338775378 -1.9052888942898427 8.388595267474447
O -3.0183529129125266 -4.584815682918662 5.002119117276197
H -2.20045451175887 -4.25314557905281 4.60211348670094
H -3.03635564227591 -4.168927355192535 5.877147542469706
O 5.885263992369221 5.9787036870530414 2.4235651657255772
H 5.690658531794394 6.187345764414164 3.3496129804570285
H 5.589937468866612 5.061267511741759 2.3232902783106915
C 10.945033781181806 9.160516077777954 4.276818995183311
O 11.038893107179668 9.380294544269766 5.449723982763182
O 10.851174455183942 8.940737611286144 3.103914007603441
O 7.997737020447784 8.954853493294705 -10.142899960827988
H 7.6174138625478065 9.209438096383971 -10.997012560158351
H 7.41447132274879 8.247864009732199 -9.828370247891792
O -10.410640009373605 -0.17664490574191793 17.443441823671613
H -10.892261870482368 0.5173275072053403 17.918215485399276
H -10.989642194199817 -0.395182369348845 16.6978147109224
O 4.404598442547444 -2.5258549546077482 9.586259304763765
H 5.018292252327521 -2.26506491167545 10.289349496876405
H 4.100812218743343 -3.4058143528721443 9.855233898234982
O -7.120427599930864 12.85309212756711 1.007021203546845
H -6.416173428622494 12.985014448092826 1.659393735496093
H -6.672409695788641 12.424379983766448 0.26240868711574894
O 17.69319452624224 1.2003118818361678 -15.131316653203681
H 16.79067751808167 1.2212633336531482 -15.483440840881343
H 18.0157893060443 0.3173936322151576 -15.366582283567814
O 7.695863074302484 -6.065155551977988 6.418483036399064
H 7.442652200778334 -5.497121681190805 5.675388740856658
H 6.899996059363165 -6.097297893531071 6.9703204297597
O -8.875514413080648 -15.564933704779527 -0.3864981487583019
H -8.888166134360674 -14.899353573892412 0.31763989183952124
H -8.018362036939678 -15.432322535826247 -0.8185467875071513
O 14.081605073089644 -17.563891690162627 7.801342966337055
H 13.72177729126059 -18.241816282653147 8.392874513442152
H 13.410187526452425 -16.865262643236914 7.81016776997961
O 2.4114706462220603 -21.51953464137961 -0.29064805323620213
H 2.6437524263166363 -21.90596569920266 -1.1483680361477915
H 3.1932165813490645 -21.000825007088697 -0.04821135530003229
O -6.821721736253497 -4.492258371810091 8.160325897740837
H -7.701471994212464 -4.855740715636179 7.978976990250811
H -6.367591067512494 -4.541056633049209 7.305723060331034
O -1.6148385849558604 -9.619409810627543 -12.940317463508565
H -1.1769500028601607 -10.426181645108953 -12.629930360590741
H -1.0833902727177156 -9.342841826384316 -13.70191761175623
O 3.871637951908452 6.594061264327327 15.06716696755845
H 3.1694998656227225 7.1516506873581 14.699657103729972
H 3.5692627703933777 6.399638326475973 15.96701746355263
O 1.30620670977291 -11.822855146369108 -17.27056064625472
H 1.2956230104703763 -11.678266376512125 -18.228657421032885
H 1.8955681378867255 -11.130340290794368 -16.935839529263358
O -13.397535744461726 -6.03770307466604 -1.1666086353256881
H -13.206101619456105 -6.525290511319291 -1.9818256765492173
H -14.341481114047708 -5.829581533128318 -1.2345388015638572
O -8.586178687562692 16.262998183659803 -8.418419711570968
H -8.55705040468628 16.30935603685836 -7.450964364031098
H -9.53154364547835 16.19916821300896 -8.621330469028116
O -10.189386116747857 2.6546119745845456 9.658618464607803
H -10.76232175894878 2.701429642027047 10.438695520295932
H -10.768339839544694 2.9162265150358064 8.926954359034655
O -5.742779846875747 -1.4404047073933515 11.571355670759353
H -5.83618662409167 -0.5154866209862923 11.8447949954865
H -6.21288486902839 -1.482909132030127 10.725095317006938
O -1.703223913188868 -12.407545299719576 -9.827509319265966
H -2.0101255832335347 -12.52675598875842 -10.73886409839574
H -1.2937892935523756 -13.2572413023269 -9.605378862785416
O -10.893512369542155 0.3685245438453332 6.207121399263382
H -11.520956938245622 0.2595117482153383 6.937461649074015
H -10.265342573545695 1.0295239678764614 6.534908545332722
O 14.419641421703629 7.082641261853373 -9.891186927867937
H 15.359482801426214 6.847004382978925 -9.903052810702915
H 14.410871205858017 8.022116942804944 -10.128400908304597