194

C -5.0710522388059704 1.0783507462686561 0.47044029850746183
C -3.8153522388059704 0.1782507462686569 0.19534029850746193
C -4.11845223880597 -1.3219492537313435 0.5608402985074619
C -2.96945223880597 -2.3874492537313436 0.7034402985074619
C -2.52015223880597 0.7359507462686565 0.7384402985074618
C -2.20305223880597 0.7852507462686571 2.097440298507462
C -1.5755522388059702 1.205650746268656 -0.18965970149253808
C -0.9533522388059701 1.2695507462686564 2.508640298507462
H -2.91125223880597 0.4298507462686567 2.840840298507462
C -0.32655223880597006 1.6562507462686575 0.21554029850746192
H -1.7850522388059702 1.178550746268657 -1.2573597014925382
C 0.004447761194029898 1.6956507462686563 1.569740298507462
H -0.7158522388059702 1.2676507462686573 3.5705402985074617
H 0.3943477611940298 1.9193507462686572 -0.5551597014925382
C -1.76045223880597 -2.1592492537313435 -0.1734597014925381
C -0.5287522388059701 -1.936549253731343 0.464840298507462
C -1.8068522388059702 -2.121249253731343 -1.5681597014925381
C 0.6114477611940299 -1.614449253731343 -0.2582597014925381
H -0.4544522388059702 -1.954049253731343 1.5506402985074619
C -0.6479522388059701 -1.8270492537313432 -2.2998597014925384
H -2.74345223880597 -2.290549253731343 -2.092259701492538
C 0.5698477611940298 -1.5506492537313434 -1.6506597014925382
H 1.5072477611940298 -1.351949253731343 0.2991402985074618
H -0.7173522388059701 -1.7640492537313435 -3.3840597014925375
C 1.7791477611940298 -1.082849253731343 -2.4255597014925376
H 1.4739477611940297 -0.9102492537313429 -3.464259701492538
H 2.1252477611940295 -0.1337492537313434 -2.0010597014925384
C 1.3965477611940298 2.0964507462686566 1.997440298507462
H 1.51704776119403 1.8448507462686567 3.057640298507462
H 2.1256477611940294 1.5207507462686571 1.4165402985074618
C 3.94864776119403 -1.4275492537313434 -3.522959701492538
H 4.81734776119403 -2.087049253731343 -3.615159701492538
H 3.4305477611940303 -1.3641492537313429 -4.484459701492538
H 4.26984776119403 -0.441449253731343 -3.176459701492538
C 2.60904776119403 -3.4296492537313434 -2.8992597014925376
H 1.9825477611940296 -3.869549253731343 -2.119359701492538
H 2.06294776119403 -3.373349253731343 -3.845759701492538
H 3.5215477611940305 -4.019849253731343 -3.0234597014925377
C 3.7281477611940304 -2.060049253731343 -1.156659701492538
H 3.9048477611940298 -1.032549253731343 -0.8295597014925382
H 3.12924776119403 -2.623249253731343 -0.4404597014925382
H 4.68244776119403 -2.5769492537313434 -1.3005597014925383
C 3.1110477611940297 3.755250746268656 2.588740298507462
H 3.40124776119403 4.809350746268656 2.534540298507462
H 2.9823477611940303 3.461750746268656 3.634840298507462
H 3.86514776119403 3.1392507462686563 2.091540298507462
C 1.99744776119403 3.9574507462686572 0.40494029850746194
H 2.67914776119403 3.230350746268657 -0.04295970149253803
H 1.03214776119403 3.981150746268657 -0.10175970149253821
H 2.4399477611940297 4.958250746268657 0.368240298507462
C 0.7418477611940297 4.4992507462686575 2.475440298507462
H -0.18475223880597014 4.424250746268656 1.901240298507462
H 0.57844776119403 4.189650746268656 3.511940298507462
H 1.1210477611940297 5.524350746268658 2.4432402985074617
N 3.00114776119403 -2.025349253731343 -2.490159701492538
N 1.7831477611940298 3.586450746268657 1.862540298507462
C -3.55075223880597 -3.8435492537313434 0.6444402985074619
H -2.62515223880597 -2.2736492537313433 1.7424402985074618
H -4.67195223880597 -1.3478492537313436 1.5102402985074619
H -4.83415223880597 -1.6757492537313432 -0.1945597014925382
H -3.7169522388059697 0.17335074626865676 -0.900559701492538
H -3.9132522388059705 -4.043149253731343 -0.34225970149253815
H -4.35435223880597 -3.9354492537313432 1.3449402985074619
H -2.78115223880597 -4.545049253731343 0.8904402985074619
H -5.24235223880597 1.138950746268657 1.5249402985074618
H -5.92805223880597 0.6501507462686567 -0.006059701492538094
H -4.89895223880597 2.059650746268657 0.08004029850746197
C 0.629157291228569 2.375516406000563 -3.5949228205063526
O 0.8033208433379813 1.3044167309307897 -4.1554476119135275
O 1.0959497845239419 2.687446842217784 -2.4933622750689155
O -0.04084681939508217 3.3132855431012467 -4.042507361848935
O -3.804714962664412 4.461964932335 1.6761894718283024
H -3.878898320616546 3.865779312371472 2.4364702705149788
H -3.309109202572909 5.220029944459701 2.0206808538054117
O 1.0424815688430649 -4.493395556422956 4.856386863583396
H 0.9643754534108582 -4.540802206048777 5.8210730307918555
H 0.9555520962869912 -5.414696758844485 4.56896851775668
O 0.18380194887715018 0.0075631614641769665 -6.8248446472298605
H 0.2724976826645832 0.11531729060627885 -7.783744783511391
H 1.037539112190001 -0.3597219338127958 -6.550624919518832
O -9.242078223823441 2.963204805316945 1.6936859812608476
H -9.54114267846084 3.2168536703638058 2.579795490369556
H -10.043911577874576 3.01554902773223 1.152127767390125
O 6.610731931844338 -0.8091890204786303 -6.114874864165924
H 7.229003632200919 -0.2198920721864801 -6.572517266235206
H 6.778881679525009 -0.6409803669055245 -5.175516862380636
O -6.854367178237348 3.684881164158033 3.461066243502672
H -5.939773762025213 3.9882144660693655 3.5634144133592316
H -7.280889752965889 3.94282831963498 4.29203176777446
O -3.0883673106499243 -7.954590852293253 1.1134345709406985
H -2.632077880976523 -7.162535333486678 0.7918519712926917
H -3.913959976835522 -7.613035063897945 1.488532341200954
O 5.109647103191534 2.567554352035467 -7.694012127200035
H 5.246252859296508 2.4631976823916726 -6.7403791213745
H 5.164437609993474 3.5246833438855765 -7.834951964096414
O 1.96223814955006 -5.93674173363718 -4.710541071099872
H 1.9105572899654102 -5.944124829382674 -5.678137027865818
H 1.039650074669822 -5.848986760939622 -4.427535323533457
O 0.6048924588886186 -11.24014569163517 0.5923805876625652
H 0.9599757876588444 -10.800667267939819 -0.19485629005322513
H 1.269164993531751 -11.067586631905499 1.276432716468551
O 4.95907773615293 -0.26719573999203305 5.386372860589972
H 4.899517819326494 -0.9838824362570935 6.0358188957648
H 4.571420715310832 -0.6462775640048677 4.5832658009802785
O -0.7808153668764901 -3.8369451520398576 -6.2689938650258545
H -0.8781723292984032 -3.4932315896552986 -7.169743533802311
H -1.2410074459377172 -3.185397103570925 -5.718839036631493
O 3.4471898677664643 -4.269822321558706 1.6085182128898499
H 2.912707798631959 -4.134205768857938 2.405327114262857
H 4.286836376912373 -3.831223418209284 1.8124463520952363
O 10.601134878789184 -3.301838433204913 6.742387835629264
H 10.543866773348634 -3.5332517277703164 5.803167090491234
H 10.788522785197527 -2.3511385952182122 6.738200368141844
O -6.639293369196199 7.213589154689216 -6.381566674028823
H -6.626355522679599 8.175592342243524 -6.266025182940705
H -6.1211119827929865 6.8809942238380986 -5.633348385654779
O 1.1006375968125113 9.990604662142943 -2.1959432707976814
H 0.956376040851799 10.051483190723266 -1.2396746029382302
H 0.834059519124458 9.085283962714428 -2.415698825863783
O -3.2518293896128494 -7.670376354325404 6.870192405396444
H -3.736394036761058 -6.831911976384216 6.836399705625184
H -3.6809710938527482 -8.216127869853986 6.194208215285218
O 4.628784688404092 -0.38027474242093895 8.897106359859384
H 4.889712479163695 0.09815194412310646 8.095862358002398
H 3.957136067055087 0.18921812383709935 9.301492251083575
O -2.7180353470897387 5.3544521320423675 -7.117222611450959
H -2.7939228186484617 5.4818503301234935 -8.074812371048518
H -3.5712329307815383 5.6579362344870825 -6.7723846392875116
O 1.997049143187269 -6.899430251642851 2.5935063278095614
H 1.0421848298067198 -6.818237166844252 2.449947340235878
H 2.168970977221597 -7.847796902674688 2.4934787191561076
C 6.033238575501762 3.9897987093525664 9.832677079510242
O 6.057964321617743 3.750852026218106 11.005328509986514
O 6.008512829385779 4.228745392487027 8.660025649033969
O -9.31483703815913 -7.825680736255575 -6.564879545737937
H -9.02496998877917 -8.627463670710998 -7.025410301062495
H -9.565646864887 -8.139893767846493 -5.683218303596047
O 6.274430696859618 -1.444257259765171 1.8437891820647834
H 6.063485698319374 -1.091258410632915 2.7212066294649135
H 6.0675764596066335 -2.3882138818505347 1.9153375185351247
O -3.4401722995626733 -10.28433080070694 10.929181397262255
H -3.466221776314745 -10.26141531082849 9.960799415818686
H -4.373659979870657 -10.271654475650028 11.188800359967741
O -9.632707945492292 -0.3368943899052228 -11.518524122337805
H -10.561187118747808 -0.1498853799150135 -11.723271312582831
H -9.260737856815625 0.5318088590527763 -11.304153269189136
O 7.688037907467805 6.7634225987776775 -8.926821347321372
H 7.787238894376948 7.023533706968629 -9.854974746545835
H 8.406565968986957 7.230640588145018 -8.474729852686636
O -6.051874029019409 -10.009535903042826 -9.3633325562655
H -6.357464061837692 -10.540474472787093 -10.114123022307817
H -5.885220323285328 -9.135536723497045 -9.747147512746352
O -6.831692769118464 6.195280709435233 -15.822179864238636
H -7.7842283645268475 6.3574825746047585 -15.749146643609095
H -6.570720087890675 6.686760942784439 -16.615465679175337
O 1.4151083746530126 -9.540171179098035 6.319802236737468
H 1.08658926097268 -9.528849203080396 5.40825719577364
H 2.2106837555761913 -8.987851050336749 6.288750136421113
O 3.660072231395378 12.478034904318251 3.987274884457842
H 4.326678372061789 13.175307016848173 3.8955404241177085
H 2.853883846810007 12.955899994652802 4.233581986059042
O -6.710915214011302 0.6315221238007576 4.050674217231778
H -7.025752281094692 0.6304892399512965 4.967104198867736
H -7.451350512461676 1.0047193481707852 3.5492349439082664
O -15.189391792747461 -1.107842346982252 3.273995589076645
H -15.870136443881414 -0.7070669831488772 3.8351846700437835
H -15.606433634349319 -1.159509498916895 2.400858399361137
O -0.01976304478091251 11.794881216315583 1.392000238880941
H -0.874455985523122 11.341648586844466 1.3367959136144012
H 0.4874497848877106 11.261991256379394 2.0226549624173247
O 9.780935925251239 6.2750209614439765 5.831559183404229
H 10.044899361622974 5.876764543606682 4.988539321947672
H 9.875702872922878 7.227444370285903 5.68032816734296
O -5.4734793478525825 12.494867526840503 1.7237906288126772
H -6.162702194655907 12.151833902145706 1.1353459358524356
H -5.758346657169507 13.401196120243295 1.9145287769714874
O -7.098820485753826 6.118226594074793 -2.731116231734236
H -7.268968580150279 6.23315954836894 -1.78411707709339
H -6.3753158956863185 5.474394866546586 -2.7624811656459975
O 7.553672812645989 18.223758123434216 1.794693580541269
H 8.064714962994763 18.757220055500312 2.4217674553783706
H 7.458508385647199 17.3677747061019 2.2387634684936994
O -15.734573198226585 -10.658887231792699 2.758955249042767
H -16.367224983005308 -10.076729532869384 2.3119524641514335
H -16.13887349128091 -11.537167925478307 2.694719430099524
O -17.794990143158174 4.594564435590079 -3.2014322214844264
H -18.692821069913258 4.311611772903091 -2.9716393265976304
H -17.33858016116297 3.768740087722313 -3.4220359818873645
O -7.820114625056656 12.35094546374696 3.635957217272293
H -8.410964533224742 13.042640831812134 3.9697554508130772
H -8.049802936910876 12.279845889898263 2.697261273797468
O 13.71538345013423 11.274999668367208 2.982152037944153
H 12.822374709926994 11.028204090965225 3.266044076910212
H 13.686673474380465 11.188194955399211 2.0174745667659555