194

C -5.0710522388059704 1.0783507462686561 0.47044029850746183
C -3.8153522388059704 0.1782507462686569 0.19534029850746193
C -4.11845223880597 -1.3219492537313435 0.5608402985074619
C -2.96945223880597 -2.3874492537313436 0.7034402985074619
C -2.52015223880597 0.7359507462686565 0.7384402985074618
C -2.20305223880597 0.7852507462686571 2.097440298507462
C -1.5755522388059702 1.205650746268656 -0.18965970149253808
C -0.9533522388059701 1.2695507462686564 2.508640298507462
H -2.91125223880597 0.4298507462686567 2.840840298507462
C -0.32655223880597006 1.6562507462686575 0.21554029850746192
H -1.7850522388059702 1.178550746268657 -1.2573597014925382
C 0.004447761194029898 1.6956507462686563 1.569740298507462
H -0.7158522388059702 1.2676507462686573 3.5705402985074617
H 0.3943477611940298 1.9193507462686572 -0.5551597014925382
C -1.76045223880597 -2.1592492537313435 -0.1734597014925381
C -0.5287522388059701 -1.936549253731343 0.464840298507462
C -1.8068522388059702 -2.121249253731343 -1.5681597014925381
C 0.6114477611940299 -1.614449253731343 -0.2582597014925381
H -0.4544522388059702 -1.954049253731343 1.5506402985074619
C -0.6479522388059701 -1.8270492537313432 -2.2998597014925384
H -2.74345223880597 -2.290549253731343 -2.092259701492538
C 0.5698477611940298 -1.5506492537313434 -1.6506597014925382
H 1.5072477611940298 -1.351949253731343 0.2991402985074618
H -0.7173522388059701 -1.7640492537313435 -3.3840597014925375
C 1.7791477611940298 -1.082849253731343 -2.4255597014925376
H 1.4739477611940297 -0.9102492537313429 -3.464259701492538
H 2.1252477611940295 -0.1337492537313434 -2.0010597014925384
C 1.3965477611940298 2.0964507462686566 1.997440298507462
H 1.51704776119403 1.8448507462686567 3.057640298507462
H 2.1256477611940294 1.5207507462686571 1.4165402985074618
C 3.94864776119403 -1.4275492537313434 -3.522959701492538
H 4.81734776119403 -2.087049253731343 -3.615159701492538
H 3.4305477611940303 -1.3641492537313429 -4.484459701492538
H 4.26984776119403 -0.441449253731343 -3.176459701492538
C 2.60904776119403 -3.4296492537313434 -2.8992597014925376
H 1.9825477611940296 -3.869549253731343 -2.119359701492538
H 2.06294776119403 -3.373349253731343 -3.845759701492538
H 3.5215477611940305 -4.019849253731343 -3.0234597014925377
C 3.7281477611940304 -2.060049253731343 -1.156659701492538
H 3.9048477611940298 -1.032549253731343 -0.8295597014925382
H 3.12924776119403 -2.623249253731343 -0.4404597014925382
H 4.68244776119403 -2.5769492537313434 -1.3005597014925383
C 3.1110477611940297 3.755250746268656 2.588740298507462
H 3.40124776119403 4.809350746268656 2.534540298507462
H 2.9823477611940303 3.461750746268656 3.634840298507462
H 3.86514776119403 3.1392507462686563 2.091540298507462
C 1.99744776119403 3.9574507462686572 0.40494029850746194
H 2.67914776119403 3.230350746268657 -0.04295970149253803
H 1.03214776119403 3.981150746268657 -0.10175970149253821
H 2.4399477611940297 4.958250746268657 0.368240298507462
C 0.7418477611940297 4.4992507462686575 2.475440298507462
H -0.18475223880597014 4.424250746268656 1.901240298507462
H 0.57844776119403 4.189650746268656 3.511940298507462
H 1.1210477611940297 5.524350746268658 2.4432402985074617
N 3.00114776119403 -2.025349253731343 -2.490159701492538
N 1.7831477611940298 3.586450746268657 1.862540298507462
C -3.55075223880597 -3.8435492537313434 0.6444402985074619
H -2.62515223880597 -2.2736492537313433 1.7424402985074618
H -4.67195223880597 -1.3478492537313436 1.5102402985074619
H -4.83415223880597 -1.6757492537313432 -0.1945597014925382
H -3.7169522388059697 0.17335074626865676 -0.900559701492538
H -3.9132522388059705 -4.043149253731343 -0.34225970149253815
H -4.35435223880597 -3.9354492537313432 1.3449402985074619
H -2.78115223880597 -4.545049253731343 0.8904402985074619
H -5.24235223880597 1.138950746268657 1.5249402985074618
H -5.92805223880597 0.6501507462686567 -0.006059701492538094
H -4.89895223880597 2.059650746268657 0.08004029850746197
C 1.0759784091510154 -3.100444384431303 3.398203534188395
O 2.147018085546878 -3.4705881272839907 3.853882280470081
O 0.2288882626765658 -3.837507407376699 2.8807019901786295
O 0.673446497425839 -1.9315063546492173 3.3840498430779373
O 8.229531803036151 -0.13047973531144086 -2.623904118827653
H 8.223063107643673 -0.3534501549272897 -1.6809249542347904
H 7.452013371849935 0.4369296466052637 -2.735589510793778
O 5.6413168322217695 1.1857676553462992 8.224263550576245
H 4.820759028594089 1.699433111137825 8.2666905152591
H 6.074353948943477 1.3659514298506887 9.072187254246982
O 6.9011087770393456 8.061643061135175 -1.9983043526031479
H 6.907399859092236 7.282388894868302 -2.5742303231430474
H 6.239631041070887 8.644518282603176 -2.4003809937011757
O -0.23645462188654554 10.329226055598344 8.090879007918806
H 0.2349326570326098 11.167628186433861 7.97322163592852
H 0.3386271988579459 9.81802846207985 8.679878043682109
O -2.172865453404339 -1.7581475446419934 6.070377068133061
H -1.536340301827212 -2.187360104699418 6.661629693157819
H -2.9414867807233174 -1.590329236945483 6.636080360586171
O -2.140492516929558 2.714037775183903 7.4453624641889995
H -2.498038949223361 2.6885761376606814 6.545096053247988
H -2.570272831850832 1.9674778415430882 7.889095594221445
O 3.499212498337007 0.5829578496105734 -6.949049588759406
H 3.0759788437189792 0.052590019599902504 -7.640823103277302
H 4.309876969070004 0.909530860564721 -7.367541080557665
O -6.779471823387946 -6.873847761115867 -3.6590586543812624
H -6.975262023638108 -6.3086145002997185 -4.421387268072987
H -7.091104921071205 -7.750082412368275 -3.931197576024063
O -0.04177875893210814 -5.530386868281881 7.699390913512696
H 0.2675323438482051 -6.071238562769492 6.9572497927231876
H 0.2593762058296205 -6.014194506180614 8.483098640289846
O 5.0982679249398135 6.638949090170304 4.0348164716999495
H 4.490437574777354 5.916716571190559 4.253653879035978
H 4.519365891660941 7.409306233380322 3.9329133212536362
O 0.6692187442146962 8.54103696807108 -2.372462560100647
H 0.16298177922974694 7.885549598303159 -1.8694438723190092
H 0.6333599598719619 8.215021057319612 -3.2842683057627093
O -7.833280230738755 0.021648452650767425 -10.045508299128505
H -7.983842039918679 -0.09334581336075853 -9.095205811864089
H -6.926151337350041 -0.29206415131741004 -10.178412464566886
O -3.862174281126516 4.9556299225422595 -2.1018230284651613
H -4.564293778935479 5.091203886259216 -1.4479000451876476
H -4.084728110025697 5.5722118181095235 -2.815446531161781
O -5.184590619713982 2.8602127146655585 -4.314633412332624
H -6.051196666850867 3.0580326079763114 -3.92885030516448
H -4.571339743924553 2.946884207158966 -3.569399650327396
O -6.981856466965704 5.818716986649542 -1.1429046565409788
H -6.456494257228912 5.733359984180124 -1.95264293994489
H -7.483509621038825 4.990737198495038 -1.1010056384604407
O 3.3803658559556755 -10.4227917266778 -5.832231487075102
H 2.8630017657039835 -9.74130111475558 -6.287063654890787
H 4.260917198777854 -10.028107864761134 -5.743823760622019
O 5.549614454523997 1.3454979911483929 -0.08461311126775328
H 5.546275181943747 1.0573401664253073 0.8405470230925073
H 4.673083341248775 1.0930029973117699 -0.4115709523542506
O 6.805824138425435 -5.564584278606514 1.7568715812741398
H 6.322162049427686 -5.456383264978559 0.9242066539376887
H 6.765304187791953 -4.687482730348454 2.166765411361852
O -1.7655657483195448 6.136306255584038 -5.99423233417081
H -1.1228746239191671 5.423754326994762 -5.859379731004676
H -2.3278989458391752 6.096560464583153 -5.206093011864746
O -7.98886461114705 -5.194891555582489 -1.258664146550296
H -7.67687000061472 -6.067856233937953 -0.9766014048729841
H -8.268756049873591 -4.7688480522651915 -0.4345830461064688
C 8.017608301525144 -14.848583428834912 4.02958152669038
O 8.327618290630255 -14.336976582528447 2.9927736858792664
O 7.707598312420035 -15.36019027514138 5.066389367501492
O 14.59005778841562 -0.7205985050189676 4.549255947430839
H 13.944002636383127 -1.0776217176350593 3.921470535776857
H 14.282489848512594 -1.0422929260235412 5.409997840299046
O -11.207439877764417 -4.619355592186346 -6.953072950085484
H -10.710457129273774 -5.232264590706549 -6.390651342983081
H -12.128187743912765 -4.743182766916097 -6.6776602741213775
O -11.233614703442742 -14.924778345587093 -2.517295542111447
H -10.692136439111028 -14.413164870570265 -1.897601828784028
H -11.757263945673497 -15.506199038576598 -1.9457158073633023
O -17.399097909703894 -5.5145056345624335 -2.5283718776242554
H -17.21117934100957 -5.480319747863683 -3.478364137377196
H -17.86237034224522 -4.6820448241946115 -2.3513137042772176
O -12.240758804028069 17.837193765535066 8.391538235370046
H -11.863866107229006 17.676178991221775 7.513475883112319
H -11.505272434736225 18.21595949630313 8.89607591095199
O 8.333446359338314 5.848633486484722 13.803407415083363
H 7.746812333393833 6.463712601834478 13.338105837217212
H 8.167352510879738 4.996255946676213 13.37349194963206
O 17.331507498120917 -3.0984865808708553 0.2079909470453707
H 17.241299084072654 -3.5391295888511687 -0.6503001099119756
H 18.26406550103979 -3.224682629642781 0.4390149128288279
O -0.15803749925966226 -8.399644588577019 -10.69015901430194
H 0.6684537109861277 -8.047337881205623 -11.053146094275286
H -0.8478701560591766 -7.891733736303223 -11.143060124982224
O -3.417834386172662 -4.556478396454247 14.304678403048863
H -3.276369689965052 -5.336275188416194 13.74711938386547
H -2.609328146783268 -4.4986037922505275 14.835649339500835
O -5.770950369837733 -1.8749085120027362 -3.2099285636600308
H -5.082101086992294 -1.2438510425231195 -3.4672619906323323
H -5.34352797507177 -2.426822392091452 -2.5378697048403964
O 8.017082993626017 5.873482341307406 -16.279787783515697
H 8.164528280018791 6.398729221364075 -15.47894887373965
H 8.849746358060534 5.392952591741837 -16.4011336759515
O -16.712827749853027 -3.4748473617349687 -5.860392697282656
H -16.581874143326512 -3.422310662147079 -6.819068035983986
H -16.118446505871507 -4.187583193667437 -5.581680453234226
O -0.2372281531712339 -19.70993878236743 -9.900431681597645
H 0.4964629864161356 -20.23780087226735 -10.249754286989102
H 0.1343448112989858 -19.285043400253603 -9.112802713978272
O -4.16372617125926 -6.828862783628507 11.498813950568497
H -3.357284586458327 -6.297631807059282 11.578895014104573
H -3.8463029757388685 -7.691389620492632 11.191809203154405
O -11.17919325353673 9.858284754179158 -7.08283168812037
H -11.737255473785654 10.577041048355746 -6.7497801833761555
H -11.126473203070457 10.025283014098179 -8.03587634697055
O -12.889948993517304 -10.101353689651724 -2.670582969639062
H -12.509274398488724 -10.289137384191863 -3.541669356666595
H -13.819199487156617 -9.901779957376194 -2.8593309226258685
O 12.564633112316393 -15.907712681339383 2.0259936206252966
H 12.936186342151563 -15.172110546859866 1.5162828653451772
H 12.742833338678114 -15.667409844771058 2.94765579862863
O 10.030212802944728 15.086047812479354 7.632966047167267
H 9.466255884251186 15.089674133696843 6.844989651231378
H 10.036838186425754 14.158050480220126 7.9117831913917325
O -3.844541130300806 4.169392981672308 12.601291883974366
H -3.0820142044695777 4.589103533015464 12.175424419411033
H -4.379540536930631 3.848609745981458 11.859782818011283
O -13.52434525344675 -6.60148720582113 -1.5614854958009605
H -13.623134323420825 -5.886214933182888 -2.2077003614212005
H -12.900467533267106 -7.212223136930951 -1.981890249597667