194

C -5.0710522388059704 1.0783507462686561 0.47044029850746183
C -3.8153522388059704 0.1782507462686569 0.19534029850746193
C -4.11845223880597 -1.3219492537313435 0.5608402985074619
C -2.96945223880597 -2.3874492537313436 0.7034402985074619
C -2.52015223880597 0.7359507462686565 0.7384402985074618
C -2.20305223880597 0.7852507462686571 2.097440298507462
C -1.5755522388059702 1.205650746268656 -0.18965970149253808
C -0.9533522388059701 1.2695507462686564 2.508640298507462
H -2.91125223880597 0.4298507462686567 2.840840298507462
C -0.32655223880597006 1.6562507462686575 0.21554029850746192
H -1.7850522388059702 1.178550746268657 -1.2573597014925382
C 0.004447761194029898 1.6956507462686563 1.569740298507462
H -0.7158522388059702 1.2676507462686573 3.5705402985074617
H 0.3943477611940298 1.9193507462686572 -0.5551597014925382
C -1.76045223880597 -2.1592492537313435 -0.1734597014925381
C -0.5287522388059701 -1.936549253731343 0.464840298507462
C -1.8068522388059702 -2.121249253731343 -1.5681597014925381
C 0.6114477611940299 -1.614449253731343 -0.2582597014925381
H -0.4544522388059702 -1.954049253731343 1.5506402985074619
C -0.6479522388059701 -1.8270492537313432 -2.2998597014925384
H -2.74345223880597 -2.290549253731343 -2.092259701492538
C 0.5698477611940298 -1.5506492537313434 -1.6506597014925382
H 1.5072477611940298 -1.351949253731343 0.2991402985074618
H -0.7173522388059701 -1.7640492537313435 -3.3840597014925375
C 1.7791477611940298 -1.082849253731343 -2.4255597014925376
H 1.4739477611940297 -0.9102492537313429 -3.464259701492538
H 2.1252477611940295 -0.1337492537313434 -2.0010597014925384
C 1.3965477611940298 2.0964507462686566 1.997440298507462
H 1.51704776119403 1.8448507462686567 3.057640298507462
H 2.1256477611940294 1.5207507462686571 1.4165402985074618
C 3.94864776119403 -1.4275492537313434 -3.522959701492538
H 4.81734776119403 -2.087049253731343 -3.615159701492538
H 3.4305477611940303 -1.3641492537313429 -4.484459701492538
H 4.26984776119403 -0.441449253731343 -3.176459701492538
C 2.60904776119403 -3.4296492537313434 -2.8992597014925376
H 1.9825477611940296 -3.869549253731343 -2.119359701492538
H 2.06294776119403 -3.373349253731343 -3.845759701492538
H 3.5215477611940305 -4.019849253731343 -3.0234597014925377
C 3.7281477611940304 -2.060049253731343 -1.156659701492538
H 3.9048477611940298 -1.032549253731343 -0.8295597014925382
H 3.12924776119403 -2.623249253731343 -0.4404597014925382
H 4.68244776119403 -2.5769492537313434 -1.3005597014925383
C 3.1110477611940297 3.755250746268656 2.588740298507462
H 3.40124776119403 4.809350746268656 2.534540298507462
H 2.9823477611940303 3.461750746268656 3.634840298507462
H 3.86514776119403 3.1392507462686563 2.091540298507462
C 1.99744776119403 3.9574507462686572 0.40494029850746194
H 2.67914776119403 3.230350746268657 -0.04295970149253803
H 1.03214776119403 3.981150746268657 -0.10175970149253821
H 2.4399477611940297 4.958250746268657 0.368240298507462
C 0.7418477611940297 4.4992507462686575 2.475440298507462
H -0.18475223880597014 4.424250746268656 1.901240298507462
H 0.57844776119403 4.189650746268656 3.511940298507462
H 1.1210477611940297 5.524350746268658 2.4432402985074617
N 3.00114776119403 -2.025349253731343 -2.490159701492538
N 1.7831477611940298 3.586450746268657 1.862540298507462
C -3.55075223880597 -3.8435492537313434 0.6444402985074619
H -2.62515223880597 -2.2736492537313433 1.7424402985074618
H -4.67195223880597 -1.3478492537313436 1.5102402985074619
H -4.83415223880597 -1.6757492537313432 -0.1945597014925382
H -3.7169522388059697 0.17335074626865676 -0.900559701492538
H -3.9132522388059705 -4.043149253731343 -0.34225970149253815
H -4.35435223880597 -3.9354492537313432 1.3449402985074619
H -2.78115223880597 -4.545049253731343 0.8904402985074619
H -5.24235223880597 1.138950746268657 1.5249402985074618
H -5.92805223880597 0.6501507462686567 -0.006059701492538094
H -4.89895223880597 2.059650746268657 0.08004029850746197
C 0.7073431823358439 1.9107895676354745 -4.765259282379049
O -0.48906227075610775 2.0263934954737097 -4.5484062854428435
O 1.2088290181218573 1.6225790208776623 -5.857998089845668
O 1.6017545891875553 2.0641234491061784 -3.925518048136815
O -4.700650393117799 3.869094431148198 6.488775871804887
H -4.879600428026806 4.639098335861254 7.049167010771869
H -4.9516286258101 4.162930636593668 5.600163382930206
O -3.8749029798062904 -4.901036588537086 6.6511421629336365
H -3.835962863746544 -4.903267882528467 7.619360137146249
H -3.0260068412435692 -4.51792073232698 6.383636030380201
O -5.826350681454003 -2.4091925242403085 5.165584245869599
H -5.670253371003376 -3.1791970931063127 4.598403542305417
H -5.6095582031945295 -2.7260445480668065 6.055285184762646
O -2.3312330820258214 4.290344458445894 7.773159904127072
H -1.5543578636519233 4.231932167966637 8.349371893153226
H -1.9734752668076125 4.603969853368442 6.928997359583683
O -4.373339612067981 6.992162717352757 2.712711925034366
H -3.7759877479866892 6.428695842365561 2.1982771010082596
H -3.77767540651886 7.534402295843584 3.2513419817946843
O 1.0093051302839569 -5.296213948102034 9.363193496517258
H 1.478877681953145 -5.115807936665705 10.191397968043779
H 0.6135457469538956 -4.443559308308137 9.127998853627268
O 0.2347508215756391 -6.982676869133078 -0.10570687310302151
H 0.3313592483138833 -7.924016817950642 -0.3143052181187642
H -0.6083960082774791 -6.933536215893306 0.369320035406175
O 10.231194942142057 1.6199068112174277 -0.23783074269165194
H 9.575304159883295 0.9239644958044229 -0.0815011796986691
H 10.629027537976164 1.7665847208242127 0.633476758036581
O 1.7978899282342402 -1.6396016354811631 5.2108869781953455
H 0.8814092116072636 -1.9004642138421384 5.386901659860737
H 2.11812803302195 -2.3128825944952016 4.591934434965161
O -7.069500062357922 -2.5591993592908455 -4.379037069688317
H -6.622694204462809 -3.3860854641950695 -4.143259098353132
H -6.856112320864463 -2.436860830567014 -5.316299519843025
O -8.81546159767334 -3.778549757119958 4.1290317714398554
H -8.856114334050408 -3.9063465383335956 5.088710204372727
H -8.870453997890081 -4.67718094554711 3.770702638652122
O 3.0295270642680254 -4.592103919658543 4.122003417583331
H 2.285347791348566 -5.154164094818026 4.385162924644651
H 2.671871360391118 -4.0526933054549215 3.4008373264026748
O -6.536675358528796 7.1876167429878945 -4.403340280942065
H -6.377217057760271 7.0633488875101005 -5.351020557887284
H -5.741962847536025 6.826193490757211 -3.9829033630595356
O 0.21753434736856292 0.052638517512740624 7.979430606931389
H -0.11429337239712423 -0.17947335923235752 7.0991001019680695
H 1.1670139356739346 -0.13403048068026902 7.928390026947624
O 7.0473418024754615 5.227596973733833 1.1043949546856975
H 6.87839769239012 5.170639906958987 0.15193438483942845
H 6.226430746891471 4.907069700498674 1.5072959974150641
O 5.587084718424966 2.2167524242344996 4.191864881979198
H 4.822599176296225 1.6293197422001362 4.289086571195352
H 6.1441576810349865 1.7695168416121272 3.53718023097131
O -8.04103818150009 0.5965688600802521 4.858788810888783
H -7.416339733737618 1.3277696636107281 4.977383040004469
H -7.944192420683593 0.07240250248090215 5.66800600823008
O 9.048814589432833 -7.472587224906942 -3.115565145448928
H 9.027302321931552 -6.643449878185301 -2.614530376676988
H 9.000750558048173 -8.159409700902847 -2.4337098238051724
O 5.2329653716299935 -3.2038767896995757 -6.8834927001043695
H 5.361875262636914 -3.346988238203571 -5.933825016012891
H 4.327935001908427 -2.8637387087722734 -6.948207923079613
O 7.115393916221889 -0.9446767416980514 -1.3600686578251857
H 7.1174829380994575 -0.9148031800415016 -0.3915282285185159
H 6.837578851784764 -0.05381506705576 -1.6211169501492837
C 13.934084441306096 0.6443644974336182 -13.9436754543771
O 14.155426186507398 0.6184336965958765 -12.767599911438147
O 13.712742696104796 0.6702952982713599 -15.119750997316057
O 18.704853433583047 5.112825226388051 2.4429683548020447
H 18.02661599640002 5.231670350646976 1.7611786715834694
H 18.656455223940355 5.927274223941927 2.9657420993482573
O 18.894189891776037 -7.596160242652957 3.0036160514882617
H 18.587080670994407 -8.510727235675574 2.9129601157506038
H 18.92240195097763 -7.452594710564176 3.96150694402857
O -13.247522598514518 -4.981558445413112 -5.858702809219652
H -13.39963231685563 -4.6919741840119835 -6.770827222901771
H -12.361316629639047 -4.648516666670548 -5.65210150563839
O 12.68492650205756 -4.890760990471353 8.571266031813842
H 13.62959993056791 -4.955816950533332 8.777001766257136
H 12.58544717709401 -3.997973262229446 8.207953658634164
O 2.869638347711037 13.044414914019654 -14.803643024186952
H 1.9095978067037667 13.125948214798079 -14.700483742555855
H 3.113654503622698 13.81398083280426 -15.339540735134946
O 11.123007026581277 20.022172083013967 -2.53122063731659
H 10.888538237869128 19.31260437962215 -3.1480718497844933
H 10.284519206496487 20.24265930837118 -2.0984556857277017
O 6.776064461014695 -12.861765192782958 10.107439736609933
H 6.329144546283192 -13.55273731299074 10.61909144999703
H 6.347750644039569 -12.042171066442641 10.396878307910734
O -6.528185929317458 7.236521955658471 0.5481635469263537
H -6.995989599719936 6.775136346637052 -0.1640515909680227
H -5.740568815686962 6.693211188026696 0.701247303059179
O 13.058555570653626 -7.066302662982664 -13.601404997275822
H 12.121420272008 -7.1032310822565075 -13.357722661473009
H 13.263685734708163 -7.971310594968757 -13.880410737606041
O 6.334793307008725 7.013757352475211 -6.477783034448477
H 5.8329569727352295 7.401337892834505 -7.210523762972379
H 6.095561847800569 6.075038116918737 -6.50094442519703
O -9.864950693719752 3.8678348371781364 -1.3728096369977205
H -9.645534250977922 4.292555517128864 -0.5299359064919504
H -10.807548339131937 4.058042791517047 -1.492361120759382
O -0.6038742285783671 -16.717009991395102 1.5142052966159172
H -1.2957527006903833 -16.08553203976849 1.2661989794838604
H 0.20352857326473828 -16.18180195305603 1.5390048041341347
O 3.818405692144734 8.567713614612224 -15.092088419814408
H 3.8083572696031256 8.796111231597388 -14.150440441714352
H 3.765425906604149 9.424633621313472 -15.541358036792015
O 14.791376251836201 -1.3393856904885215 3.34960684738399
H 14.781169405995515 -1.4665112626740258 4.310180772750744
H 15.506306235763672 -1.917969318466687 3.044519896143707
O 11.869035770175344 10.49987286634297 -4.654478613147115
H 10.903724598791888 10.573791614222145 -4.695438569376016
H 12.020921589721507 9.73041843346964 -4.085415771404331
O 0.005222423889788885 11.074504307531143 -17.01184994502579
H 0.17542822400545788 12.022471313690325 -16.905285890389234
H -0.9544334945498907 11.021418061825887 -17.13515571545287
O 8.297803367207585 7.705567892233325 0.7164315882569974
H 8.527739638897451 7.485811784998375 1.6317478839681065
H 9.000956088527891 7.292724086620688 0.19288771524622345
O 1.7104069072913948 -20.550569387498488 -0.491003269925642
H 1.757777107503621 -20.454970504844972 -1.4541150363719115
H 2.5914858477512777 -20.286701004029858 -0.18598635042158562
O 7.08403466992195 -5.74259244613623 -10.036899402184291
H 7.88167025451795 -6.268349504832198 -9.874651609233007
H 7.212780119678308 -5.391788840953136 -10.930948273363924
O 2.382417896331471 -8.322559802602813 3.377396647713118
H 2.427836308459466 -7.379207086402339 3.594168826686712
H 3.206514713058393 -8.49220531512063 2.896723389622843