194

C -5.0710522388059704 1.0783507462686561 0.47044029850746183
C -3.8153522388059704 0.1782507462686569 0.19534029850746193
C -4.11845223880597 -1.3219492537313435 0.5608402985074619
C -2.96945223880597 -2.3874492537313436 0.7034402985074619
C -2.52015223880597 0.7359507462686565 0.7384402985074618
C -2.20305223880597 0.7852507462686571 2.097440298507462
C -1.5755522388059702 1.205650746268656 -0.18965970149253808
C -0.9533522388059701 1.2695507462686564 2.508640298507462
H -2.91125223880597 0.4298507462686567 2.840840298507462
C -0.32655223880597006 1.6562507462686575 0.21554029850746192
H -1.7850522388059702 1.178550746268657 -1.2573597014925382
C 0.004447761194029898 1.6956507462686563 1.569740298507462
H -0.7158522388059702 1.2676507462686573 3.5705402985074617
H 0.3943477611940298 1.9193507462686572 -0.5551597014925382
C -1.76045223880597 -2.1592492537313435 -0.1734597014925381
C -0.5287522388059701 -1.936549253731343 0.464840298507462
C -1.8068522388059702 -2.121249253731343 -1.5681597014925381
C 0.6114477611940299 -1.614449253731343 -0.2582597014925381
H -0.4544522388059702 -1.954049253731343 1.5506402985074619
C -0.6479522388059701 -1.8270492537313432 -2.2998597014925384
H -2.74345223880597 -2.290549253731343 -2.092259701492538
C 0.5698477611940298 -1.5506492537313434 -1.6506597014925382
H 1.5072477611940298 -1.351949253731343 0.2991402985074618
H -0.7173522388059701 -1.7640492537313435 -3.3840597014925375
C 1.7791477611940298 -1.082849253731343 -2.4255597014925376
H 1.4739477611940297 -0.9102492537313429 -3.464259701492538
H 2.1252477611940295 -0.1337492537313434 -2.0010597014925384
C 1.3965477611940298 2.0964507462686566 1.997440298507462
H 1.51704776119403 1.8448507462686567 3.057640298507462
H 2.1256477611940294 1.5207507462686571 1.4165402985074618
C 3.94864776119403 -1.4275492537313434 -3.522959701492538
H 4.81734776119403 -2.087049253731343 -3.615159701492538
H 3.4305477611940303 -1.3641492537313429 -4.484459701492538
H 4.26984776119403 -0.441449253731343 -3.176459701492538
C 2.60904776119403 -3.4296492537313434 -2.8992597014925376
H 1.9825477611940296 -3.869549253731343 -2.119359701492538
H 2.06294776119403 -3.373349253731343 -3.845759701492538
H 3.5215477611940305 -4.019849253731343 -3.0234597014925377
C 3.7281477611940304 -2.060049253731343 -1.156659701492538
H 3.9048477611940298 -1.032549253731343 -0.8295597014925382
H 3.12924776119403 -2.623249253731343 -0.4404597014925382
H 4.68244776119403 -2.5769492537313434 -1.3005597014925383
C 3.1110477611940297 3.755250746268656 2.588740298507462
H 3.40124776119403 4.809350746268656 2.534540298507462
H 2.9823477611940303 3.461750746268656 3.634840298507462
H 3.86514776119403 3.1392507462686563 2.091540298507462
C 1.99744776119403 3.9574507462686572 0.40494029850746194
H 2.67914776119403 3.230350746268657 -0.04295970149253803
H 1.03214776119403 3.981150746268657 -0.10175970149253821
H 2.4399477611940297 4.958250746268657 0.368240298507462
C 0.7418477611940297 4.4992507462686575 2.475440298507462
H -0.18475223880597014 4.424250746268656 1.901240298507462
H 0.57844776119403 4.189650746268656 3.511940298507462
H 1.1210477611940297 5.524350746268658 2.4432402985074617
N 3.00114776119403 -2.025349253731343 -2.490159701492538
N 1.7831477611940298 3.586450746268657 1.862540298507462
C -3.55075223880597 -3.8435492537313434 0.6444402985074619
H -2.62515223880597 -2.2736492537313433 1.7424402985074618
H -4.67195223880597 -1.3478492537313436 1.5102402985074619
H -4.83415223880597 -1.6757492537313432 -0.1945597014925382
H -3.7169522388059697 0.17335074626865676 -0.900559701492538
H -3.9132522388059705 -4.043149253731343 -0.34225970149253815
H -4.35435223880597 -3.9354492537313432 1.3449402985074619
H -2.78115223880597 -4.545049253731343 0.8904402985074619
H -5.24235223880597 1.138950746268657 1.5249402985074618
H -5.92805223880597 0.6501507462686567 -0.006059701492538094
H -4.89895223880597 2.059650746268657 0.08004029850746197
C -0.39536032864641024 1.7415613949754087 -3.9250148147166475
O 0.16620985187684723 1.1564156113764485 -3.0117684936819367
O -1.2050286499831264 2.6658226296024434 -3.7878658311641136
O -0.2408918147371425 1.5000051590954235 -5.1276945091981645
O -9.17164042431764 -6.02233948366411 0.19779759140921094
H -9.250045398132483 -6.9852544695143814 0.12286597587834347
H -8.931981943482352 -5.878515896247599 1.1256125150692946
O 0.977805613160948 -1.217929908931159 -9.177966790259866
H 0.07625165761070811 -1.0141783081205094 -8.887014719810427
H 1.0764440125037391 -0.7178277933874169 -10.00206040417989
O -8.311535049099607 -5.012553857574783 6.659107580535505
H -7.553067789645201 -5.455349550981393 6.249685124951685
H -9.079852964041098 -5.434209954064393 6.245760677591857
O 5.308022082822037 6.499329871930396 1.742453519442611
H 4.716156533430696 6.7193943258255775 1.007447285131974
H 5.0242392661774256 7.089893646859679 2.4563608558795784
O 8.953026283153175 -9.047084596910478 -0.7526655872019301
H 8.292351725310589 -9.02455102387622 -1.4611630985636959
H 8.574347602046881 -8.483300966686947 -0.0614981551946272
O -3.000503287229536 4.86403880630509 -0.19984493337090217
H -3.059958173320063 4.63159572002641 0.7389855545560751
H -3.858815282145107 4.597180419530812 -0.5618519292871174
O -3.3830368483868636 -0.1736763483654811 -7.817902725483321
H -3.692229812279779 -0.7979955906982696 -8.491395525468688
H -2.4824034155520684 -0.4708530183154791 -7.619138063640123
O 1.572154632883573 -9.092984286347793 4.322613953984241
H 1.794235398802258 -8.819541920575864 3.4199087070126613
H 2.3680951226993585 -8.882228625374422 4.833517792626586
O -2.792703100888974 4.388428965554656 5.748175254334523
H -1.87819830646548 4.153408339960235 5.53042851286258
H -2.786106134273306 4.485931046790759 6.712235298359842
O 8.985865057609207 -0.9696172533241607 -4.50183107544087
H 9.00207826647462 -1.109653134159465 -3.5431369423426378
H 9.293533176574252 -0.05718640817734766 -4.6103309634462475
O 9.98558747550939 1.6240988292522447 1.603985841089611
H 9.483899474963692 1.5841603261281287 0.7759270128795221
H 9.353734140849248 1.3252460546992522 2.2751120042816257
O -0.24086952081783952 2.4678038929605766 -7.831702494975621
H -0.405225544337825 2.564161049502095 -6.8816131555890925
H -0.21524413121463315 1.5088838961567037 -7.968734328639714
O -7.363551840175546 2.083058955785033 6.363960598590751
H -7.1955032830694865 1.3880922029040919 5.709935941758386
H -7.460162856450654 1.600499639405002 7.19868496148495
O 0.3547060289071947 -6.805281229435652 0.12432151057682972
H 1.3168542598166038 -6.908016496596804 0.07251800162982491
H 0.010998763661048183 -7.6448065024652845 -0.2163022937315835
O 3.5746958474723822 -5.936419429517604 2.7171637366110333
H 4.379520551406176 -6.214478632857265 3.1796652309610467
H 2.9289832471277 -6.6248124622168545 2.9365542892500147
O -2.1802962443511733 -1.3208957270973234 6.473446859928281
H -2.601060568163958 -0.8142027084786174 7.184211888323343
H -1.9361981985234245 -2.158180890126073 6.895740175166627
O 4.156445521040137 12.286558958940649 -0.5332864106136066
H 4.683255363086813 12.553611979364167 0.23490720528373465
H 3.742387508765388 11.45561446158467 -0.25570912572721927
O -2.1805164136600452 -9.761907672646522 2.83012336193941
H -1.2990068381197302 -9.766721227838278 3.2324727807499136
H -2.638960179090118 -10.498286001730573 3.2620240619778276
O -10.07546908734492 -8.09049623372629 2.9451889886155156
H -10.050834970575147 -8.78335801155961 3.6221698406406118
H -10.037743195170634 -7.2659086096078305 3.4527261316014535
O -6.387539817403233 -7.174352855981104 4.027538660556241
H -6.424037939119121 -6.9745103229188 4.975008029976939
H -7.012517684804396 -6.54829925538032 3.632037081882417
C 9.837083659286712 -14.760403299167283 5.036097648589225
O 10.142762085659571 -13.6740526903395 4.6370721962058905
O 9.531405232913855 -15.846753907995065 5.435123100972557
O -4.15530320602496 0.7623476187408229 -12.176247076070279
H -4.4508097693916335 0.9186651923775135 -11.266737293781185
H -4.2575725162155145 1.6243020317178523 -12.606987743343028
O 15.24538353020824 -11.262942731895228 7.841877763109315
H 15.206964694881894 -11.489655883667574 8.783202625633205
H 16.053832905067665 -11.696331035262423 7.5295540030558925
O -0.08723822917649215 -7.665357386134667 -13.377963364585009
H 0.7890175005218776 -7.6366526524291745 -12.965265786043922
H 0.0006358639431836011 -7.091764385046829 -14.153998903179371
O 5.923816941947219 -7.225427495840725 14.106709343097194
H 5.7235344643272485 -7.325749078619183 15.049465868445722
H 6.484101018079249 -7.989555763084177 13.903850550996887
O 3.1967534017569013 -9.771525336489864 -5.520477494746573
H 3.1838151674499846 -10.035429683470406 -4.588192959511867
H 3.46116130957049 -8.839610575106917 -5.496284931794202
O 6.0757460632577525 -8.908654161336269 1.263939196253149
H 6.518341058518491 -9.75134392875841 1.4454632523783992
H 6.063490560873965 -8.460860221010492 2.1231785889539467
O -4.078351409782767 1.1737591556089333 -16.70674985466228
H -4.895706545275749 0.6867610275857681 -16.523090488755763
H -4.2996652865557685 2.0921985492103587 -16.49122446745987
O -12.804405401221846 19.700362191286114 6.066184688084409
H -12.420604177997461 19.709165701711555 5.176473231399907
H -13.580606243412124 19.12664819442628 5.980590023004125
O -8.193324505396339 -10.700435539530258 9.430109453073213
H -8.835851515603949 -10.87707555031119 8.726600601213493
H -8.600540692722333 -11.084812347977053 10.220926366276219
O -12.052731480902633 -4.055009472327669 -5.800354027577628
H -11.599182805882352 -3.8262861415741263 -4.975159144985427
H -11.69848639349188 -3.4240102325121313 -6.444801326972668
O 12.521511424481716 -9.569283988223624 -8.414418206226657
H 12.336951098304763 -9.508502028690216 -7.465097187657732
H 11.982168545997077 -10.317987163144137 -8.710247142593348
O -14.628451562255734 0.9780056389993224 5.779496057397025
H -15.009735697524455 0.605874406033819 6.588883548370267
H -13.691547115493746 0.7357308141704673 5.829244536687934
O 1.389252649418835 -6.951248388314034 8.048815300197212
H 0.7541622170772593 -6.748541711695803 8.752048904984827
H 0.8415309948719356 -7.024801409429804 7.252854945326979
O -10.365603226086535 -16.19364327235664 6.396834540899697
H -10.424214186072607 -16.188376182745294 5.429619792233953
H -11.279032880359257 -16.051689713943528 6.687450091497159
O -9.641720954372722 13.2591414602722 15.466618341592275
H -10.212515311328502 12.901971594521767 14.769774854166828
H -10.261215044341203 13.529533543324435 16.160936091773557
O -17.11697001407083 -10.361554217576044 -8.236828468345282
H -17.05238399681521 -10.038197979511894 -7.325655188129023
H -17.398869099404987 -9.583994005430034 -8.741699705865523
O 11.061704005566824 -4.452774478439625 -4.910195049149754
H 11.147715858013376 -3.877404815224909 -5.685126703420568
H 11.408878463428307 -5.305562495524603 -5.212162660036842
O 6.310583209186085 -10.000606748889806 16.587131026711926
H 6.380161424236287 -9.912551140470052 17.54961346224842
H 7.231227857474454 -9.99968112708704 16.284848842152098
O 2.4799227482106563 11.101778464072424 -4.435126031378305
H 2.6332391812817573 10.82276448483299 -3.519914237507983
H 3.3589658242465523 11.358413698851805 -4.7519596960086306
O 7.76541273207121 10.363781852075885 8.042814327490097
H 6.909974372427124 10.287741042261837 7.594026666126441
H 8.40604484344909 10.418238795590879 7.317840615225629