194

C -5.0710522388059704 1.0783507462686561 0.47044029850746183
C -3.8153522388059704 0.1782507462686569 0.19534029850746193
C -4.11845223880597 -1.3219492537313435 0.5608402985074619
C -2.96945223880597 -2.3874492537313436 0.7034402985074619
C -2.52015223880597 0.7359507462686565 0.7384402985074618
C -2.20305223880597 0.7852507462686571 2.097440298507462
C -1.5755522388059702 1.205650746268656 -0.18965970149253808
C -0.9533522388059701 1.2695507462686564 2.508640298507462
H -2.91125223880597 0.4298507462686567 2.840840298507462
C -0.32655223880597006 1.6562507462686575 0.21554029850746192
H -1.7850522388059702 1.178550746268657 -1.2573597014925382
C 0.004447761194029898 1.6956507462686563 1.569740298507462
H -0.7158522388059702 1.2676507462686573 3.5705402985074617
H 0.3943477611940298 1.9193507462686572 -0.5551597014925382
C -1.76045223880597 -2.1592492537313435 -0.1734597014925381
C -0.5287522388059701 -1.936549253731343 0.464840298507462
C -1.8068522388059702 -2.121249253731343 -1.5681597014925381
C 0.6114477611940299 -1.614449253731343 -0.2582597014925381
H -0.4544522388059702 -1.954049253731343 1.5506402985074619
C -0.6479522388059701 -1.8270492537313432 -2.2998597014925384
H -2.74345223880597 -2.290549253731343 -2.092259701492538
C 0.5698477611940298 -1.5506492537313434 -1.6506597014925382
H 1.5072477611940298 -1.351949253731343 0.2991402985074618
H -0.7173522388059701 -1.7640492537313435 -3.3840597014925375
C 1.7791477611940298 -1.082849253731343 -2.4255597014925376
H 1.4739477611940297 -0.9102492537313429 -3.464259701492538
H 2.1252477611940295 -0.1337492537313434 -2.0010597014925384
C 1.3965477611940298 2.0964507462686566 1.997440298507462
H 1.51704776119403 1.8448507462686567 3.057640298507462
H 2.1256477611940294 1.5207507462686571 1.4165402985074618
C 3.94864776119403 -1.4275492537313434 -3.522959701492538
H 4.81734776119403 -2.087049253731343 -3.615159701492538
H 3.4305477611940303 -1.3641492537313429 -4.484459701492538
H 4.26984776119403 -0.441449253731343 -3.176459701492538
C 2.60904776119403 -3.4296492537313434 -2.8992597014925376
H 1.9825477611940296 -3.869549253731343 -2.119359701492538
H 2.06294776119403 -3.373349253731343 -3.845759701492538
H 3.5215477611940305 -4.019849253731343 -3.0234597014925377
C 3.7281477611940304 -2.060049253731343 -1.156659701492538
H 3.9048477611940298 -1.032549253731343 -0.8295597014925382
H 3.12924776119403 -2.623249253731343 -0.4404597014925382
H 4.68244776119403 -2.5769492537313434 -1.3005597014925383
C 3.1110477611940297 3.755250746268656 2.588740298507462
H 3.40124776119403 4.809350746268656 2.534540298507462
H 2.9823477611940303 3.461750746268656 3.634840298507462
H 3.86514776119403 3.1392507462686563 2.091540298507462
C 1.99744776119403 3.9574507462686572 0.40494029850746194
H 2.67914776119403 3.230350746268657 -0.04295970149253803
H 1.03214776119403 3.981150746268657 -0.10175970149253821
H 2.4399477611940297 4.958250746268657 0.368240298507462
C 0.7418477611940297 4.4992507462686575 2.475440298507462
H -0.18475223880597014 4.424250746268656 1.901240298507462
H 0.57844776119403 4.189650746268656 3.511940298507462
H 1.1210477611940297 5.524350746268658 2.4432402985074617
N 3.00114776119403 -2.025349253731343 -2.490159701492538
N 1.7831477611940298 3.586450746268657 1.862540298507462
C -3.55075223880597 -3.8435492537313434 0.6444402985074619
H -2.62515223880597 -2.2736492537313433 1.7424402985074618
H -4.67195223880597 -1.3478492537313436 1.5102402985074619
H -4.83415223880597 -1.6757492537313432 -0.1945597014925382
H -3.7169522388059697 0.17335074626865676 -0.900559701492538
H -3.9132522388059705 -4.043149253731343 -0.34225970149253815
H -4.35435223880597 -3.9354492537313432 1.3449402985074619
H -2.78115223880597 -4.545049253731343 0.8904402985074619
H -5.24235223880597 1.138950746268657 1.5249402985074618
H -5.92805223880597 0.6501507462686567 -0.006059701492538094
H -4.89895223880597 2.059650746268657 0.08004029850746197
C 1.2221357856856625 2.2605351486904652 -3.9423853363874413
O 0.7233397094198699 1.6698996683823397 -4.887968596763299
O 1.5149565051966591 1.7476862459969267 -2.856165518242377
O 1.511280535606664 3.462514317553459 -3.925362539538863
O -0.6455795349760153 6.788408109527651 2.631404039512712
H -1.5631202342862862 6.495252797311234 2.736980480675099
H -0.27798983857909376 6.73384943424207 3.526313593799569
O 5.369409015389528 9.65850909009639 2.4393893631993633
H 5.185979080929386 9.361835008974127 1.5353399698395698
H 4.578790547283663 10.161803782868734 2.685517042295249
O 2.9800282211746283 -10.552561859815597 -3.2083237802751516
H 2.3239408294624724 -10.577993513554066 -3.9209737099913253
H 3.6681674694401165 -9.95907317969914 -3.544772150564313
O -4.2645152456186635 -4.980201545295787 6.595986691776844
H -5.200433619854783 -5.047177633217149 6.837933705219806
H -3.80634792133174 -5.470147596882225 7.29527026357774
O -6.176127165541531 8.960675731091019 -2.9833619448435753
H -7.0625802465459735 8.688581577795146 -2.7020559480714974
H -5.674468829251733 8.13207575414465 -3.010249416562406
O -8.202653441272991 2.5438945555335715 3.1867060050586398
H -7.956632504884908 3.0511300634870793 2.3985732781465545
H -8.442165324821998 1.6719102199277733 2.8385116334830482
O 4.820284284864863 -1.5687932901451394 5.343872363981466
H 4.615658281289576 -1.4287109388676211 4.407137347863583
H 3.9619539733353393 -1.4859608787720657 5.7858789388598835
O 6.100964989737941 -4.278577377372535 -8.029985054145845
H 6.37224821168798 -4.035516755890056 -8.9279239744923
H 6.0254422143732445 -5.244113556981176 -8.061578416865991
O -4.33899627886564 3.5795810930839114 -2.6985320651551947
H -4.412235487192022 3.8961244610519876 -1.7856226110146687
H -5.251956667560885 3.3719081791762004 -2.948206320541104
O -4.019044987388331 3.620307573683966 -5.53288369158311
H -4.987374965166164 3.6545489084517264 -5.5213970893828925
H -3.7681986676501342 4.304665339697833 -6.171391730898442
O -4.855556746945599 0.47029924541047374 -5.3473543720487156
H -5.254544376279014 0.2655241686844161 -6.206332483813352
H -4.095177800170493 -0.12797031926967006 -5.293881672672197
O 5.739092484526736 -6.217963120783703 -3.611658469355452
H 5.888487828256012 -6.22267552247218 -2.65425250455142
H 5.104714118212845 -5.497912049829371 -3.7460180163569103
O -2.7527597182809704 -8.978110449146467 -4.6855961747659345
H -1.8126033983005092 -8.815465975891591 -4.854771309524095
H -2.7778808542753675 -9.265005296811477 -3.760381486593713
O 0.5732788318865398 1.2871120850021556 6.877255655046082
H 0.8132077956314631 1.2802258234419166 7.81606022930955
H 1.0686510700062097 2.036795070646249 6.5145661031755235
O -2.4376673374877624 7.671426274496712 -7.652115285985827
H -2.0639994355148845 7.979063915211609 -8.491578649064024
H -3.0233647043595164 8.393139961404728 -7.378162930877982
O 7.847656429668975 1.9531573049831041 -8.015419094086353
H 7.473051989945928 1.1797022117528975 -7.567751707072251
H 7.19841503050587 2.1625133905093668 -8.703617887579812
O 3.247768147547437 5.448517255400575 -5.717747219026877
H 3.288560236657265 5.449855160812856 -6.685890582571328
H 4.152027497498414 5.231130185499675 -5.445681355372254
O -7.118543201094365 -5.019717620777483 2.273504457539879
H -6.1834550840197435 -5.27275964766306 2.2968989619261926
H -7.118628466534215 -4.096511850746181 2.5678733472186517
O 8.67750787023233 -1.7771683178353024 2.803570595172555
H 9.487729712067704 -1.569738836079807 2.314202702875215
H 8.046327059955413 -1.104298401723266 2.5072282171204834
O 7.319928908511561 0.18624420706444533 -4.222082269013257
H 7.6769815946981925 -0.6840299067544169 -3.989480241928999
H 7.068397131245826 0.5715802447660754 -3.369316270996247
C 22.301492787458585 1.4000618331046573 0.8265871487122469
O 21.684726618637796 2.1613412940978742 1.5142435546069368
O 22.918258956279374 0.6387823721114403 0.13893074281755524
O 9.969858154422461 7.161639540901037 -18.8401438144779
H 10.572455897465767 7.111663314954368 -18.08294787298109
H 9.875774086636547 8.112374428874652 -19.002049049966597
O -7.749847183753217 -5.033844285479633 -17.024014366613443
H -8.645156115627048 -4.825956124300024 -17.330888584898887
H -7.251931043257257 -5.1866577023764995 -17.841137075237985
O 14.33464358980985 -14.416916815960402 -4.438364656580097
H 14.46769585225349 -14.507981187161189 -5.393860199561034
H 15.02032366119566 -14.981955473010657 -4.051665677989269
O 5.784578658597836 4.013429219842486 9.975410457208605
H 6.078375911367874 4.145641387760438 10.88928707569669
H 4.852299799883925 4.2773224218641275 9.988769043281023
O 2.9497647500904263 -2.942692483065743 -12.607126305620833
H 2.782735282737626 -3.525404054046044 -13.363112905357568
H 3.85315375278375 -2.623776855736317 -12.752532896798272
O 10.28365807944505 7.95296939998636 -0.22466058382125986
H 11.169184857246554 7.70043636854491 0.0770623863475377
H 10.444992973992834 8.689258585147773 -0.8336033002696928
O 14.544087386367066 0.8055328777347497 -9.058390421624837
H 15.0481328804393 0.6805154993830995 -9.876483418731864
H 15.182353286896467 0.605350720510129 -8.357315754809463
O 5.825135889721503 19.817528829180322 12.879769710190077
H 5.77922491287221 20.03112707262089 13.823822319690125
H 6.20932163726672 20.611505797357957 12.478566732027437
O 7.738271916086053 6.564112917669318 6.759016755917862
H 7.8037860504157335 5.67717124006812 7.143737064241982
H 7.089535020696538 6.462797752647047 6.0463894885495115
O 2.358997967819934 -9.059402942087457 1.785888687468978
H 3.051875815180341 -8.939479974390158 1.1191757602237637
H 1.7393895831741837 -8.334852203419 1.6124712112110253
O -2.5250279454749576 10.316149482832689 -9.814072474720458
H -2.4753165552500667 11.057393959677949 -9.191936830243865
H -2.7443487593717117 10.73485582356091 -10.659971597030943
O 15.951451484250223 8.296993487906043 2.2176923645764077
H 15.727514398271389 7.773101401618343 1.4338833187314206
H 15.163664899484822 8.22869969571888 2.7777728937080326
O 0.03690458237658234 14.422048600947138 2.892628047358096
H 0.038136016879297685 13.759357437210513 3.5995978218000184
H -0.44930296627244015 13.994359813029059 2.1717629666211575
O -16.199974867167708 4.6925607723283465 -2.40181025848925
H -16.215267942376123 5.074371081987699 -1.511330406842678
H -16.04890659570056 5.45478731916517 -2.9807325442523207
O -5.879217460561216 1.5698492607308272 6.8411831457231225
H -6.03501583186293 1.819841560882233 7.764328894922427
H -6.255970643916378 2.3039401610907464 6.333118648694926
O -11.753187019039455 15.328811626080496 -7.759507749266898
H -11.81056981669965 14.801893262161718 -6.948316274214402
H -11.332504719464115 16.15358228332749 -7.473602677488927
O -7.825917607030393 -1.6373553497437374 -1.8677096178515116
H -8.284408648413079 -2.37324567599385 -1.4350217978203446
H -8.446713706565298 -1.3445379153592834 -2.5516921448379497
O -11.305435872852364 11.506407669061844 -8.37548687708097
H -11.319506320978798 11.641373109774815 -9.334941779201271
H -10.672688883444037 10.783309915935689 -8.25009616323577
O 7.65581816234926 -10.805338977843192 -5.12334421925012
H 7.62046192982596 -10.890173800594972 -4.1587093937485555
H 6.7604340577943685 -11.037893512680817 -5.411732218197531
O 4.956435876231273 9.145914099975567 8.652898753056887
H 4.981809482229237 8.903801699067294 9.590824721534727
H 4.8031675112279135 8.304192473580475 8.197953199998064