194

C -5.0710522388059704 1.0783507462686561 0.47044029850746183
C -3.8153522388059704 0.1782507462686569 0.19534029850746193
C -4.11845223880597 -1.3219492537313435 0.5608402985074619
C -2.96945223880597 -2.3874492537313436 0.7034402985074619
C -2.52015223880597 0.7359507462686565 0.7384402985074618
C -2.20305223880597 0.7852507462686571 2.097440298507462
C -1.5755522388059702 1.205650746268656 -0.18965970149253808
C -0.9533522388059701 1.2695507462686564 2.508640298507462
H -2.91125223880597 0.4298507462686567 2.840840298507462
C -0.32655223880597006 1.6562507462686575 0.21554029850746192
H -1.7850522388059702 1.178550746268657 -1.2573597014925382
C 0.004447761194029898 1.6956507462686563 1.569740298507462
H -0.7158522388059702 1.2676507462686573 3.5705402985074617
H 0.3943477611940298 1.9193507462686572 -0.5551597014925382
C -1.76045223880597 -2.1592492537313435 -0.1734597014925381
C -0.5287522388059701 -1.936549253731343 0.464840298507462
C -1.8068522388059702 -2.121249253731343 -1.5681597014925381
C 0.6114477611940299 -1.614449253731343 -0.2582597014925381
H -0.4544522388059702 -1.954049253731343 1.5506402985074619
C -0.6479522388059701 -1.8270492537313432 -2.2998597014925384
H -2.74345223880597 -2.290549253731343 -2.092259701492538
C 0.5698477611940298 -1.5506492537313434 -1.6506597014925382
H 1.5072477611940298 -1.351949253731343 0.2991402985074618
H -0.7173522388059701 -1.7640492537313435 -3.3840597014925375
C 1.7791477611940298 -1.082849253731343 -2.4255597014925376
H 1.4739477611940297 -0.9102492537313429 -3.464259701492538
H 2.1252477611940295 -0.1337492537313434 -2.0010597014925384
C 1.3965477611940298 2.0964507462686566 1.997440298507462
H 1.51704776119403 1.8448507462686567 3.057640298507462
H 2.1256477611940294 1.5207507462686571 1.4165402985074618
C 3.94864776119403 -1.4275492537313434 -3.522959701492538
H 4.81734776119403 -2.087049253731343 -3.615159701492538
H 3.4305477611940303 -1.3641492537313429 -4.484459701492538
H 4.26984776119403 -0.441449253731343 -3.176459701492538
C 2.60904776119403 -3.4296492537313434 -2.8992597014925376
H 1.9825477611940296 -3.869549253731343 -2.119359701492538
H 2.06294776119403 -3.373349253731343 -3.845759701492538
H 3.5215477611940305 -4.019849253731343 -3.0234597014925377
C 3.7281477611940304 -2.060049253731343 -1.156659701492538
H 3.9048477611940298 -1.032549253731343 -0.8295597014925382
H 3.12924776119403 -2.623249253731343 -0.4404597014925382
H 4.68244776119403 -2.5769492537313434 -1.3005597014925383
C 3.1110477611940297 3.755250746268656 2.588740298507462
H 3.40124776119403 4.809350746268656 2.534540298507462
H 2.9823477611940303 3.461750746268656 3.634840298507462
H 3.86514776119403 3.1392507462686563 2.091540298507462
C 1.99744776119403 3.9574507462686572 0.40494029850746194
H 2.67914776119403 3.230350746268657 -0.04295970149253803
H 1.03214776119403 3.981150746268657 -0.10175970149253821
H 2.4399477611940297 4.958250746268657 0.368240298507462
C 0.7418477611940297 4.4992507462686575 2.475440298507462
H -0.18475223880597014 4.424250746268656 1.901240298507462
H 0.57844776119403 4.189650746268656 3.511940298507462
H 1.1210477611940297 5.524350746268658 2.4432402985074617
N 3.00114776119403 -2.025349253731343 -2.490159701492538
N 1.7831477611940298 3.586450746268657 1.862540298507462
C -3.55075223880597 -3.8435492537313434 0.6444402985074619
H -2.62515223880597 -2.2736492537313433 1.7424402985074618
H -4.67195223880597 -1.3478492537313436 1.5102402985074619
H -4.83415223880597 -1.6757492537313432 -0.1945597014925382
H -3.7169522388059697 0.17335074626865676 -0.900559701492538
H -3.9132522388059705 -4.043149253731343 -0.34225970149253815
H -4.35435223880597 -3.9354492537313432 1.3449402985074619
H -2.78115223880597 -4.545049253731343 0.8904402985074619
H -5.24235223880597 1.138950746268657 1.5249402985074618
H -5.92805223880597 0.6501507462686567 -0.006059701492538094
H -4.89895223880597 2.059650746268657 0.08004029850746197
C 0.8896667363244949 1.6300065188559065 -3.96202082584711
O 1.9905855058458108 1.2440328733033295 -4.323652830037178
O 0.45173128621381753 1.5546001124070425 -2.808262671161811
O 0.043112997713019685 2.1557481602309965 -4.693861572572217
O -2.828950774966333 0.7137602468135622 10.873350387048625
H -1.9125867419865779 0.4774194666269569 10.665054079875729
H -3.2642039475787987 -0.14011667021418894 11.016216865265054
O 5.745326046199049 1.4307932499095157 -5.956997351758513
H 6.673310179866478 1.2139857403720913 -5.781477243595111
H 5.689440846756228 1.4547711322634278 -6.9240877559819545
O -1.2046377499403298 -7.2827494444599425 -0.9675087789170387
H -1.6550310714404803 -6.836090690039974 -0.2349726569762398
H -0.46170366918354855 -6.69712933527745 -1.1774134803202225
O -5.6320060077410155 5.629962219410226 -8.57618515930949
H -5.414085998634166 5.702933356347435 -9.517542392088291
H -5.542807050440897 4.683612588653492 -8.387962241780402
O 2.59075013988629 0.7149661669294418 -6.300264696249133
H 2.176232478340684 1.416948452663097 -6.824061732975112
H 3.393528713957313 1.1283057173654816 -5.948612991635281
O -4.061575205791387 7.841053408334592 0.9342696498635903
H -3.524694517020963 7.728068236064873 0.1355451455615253
H -3.900958977144385 8.760054348140663 1.1961888053882945
O 8.53635101273741 -3.433224325329162 -6.031921219861566
H 9.105619958408285 -3.472799475191418 -5.248764765563864
H 9.024470046206227 -3.935313541911508 -6.701703402408395
O 4.80096116791837 5.113293667279523 -0.6669816736188883
H 5.643744583639476 5.464317335733247 -0.34222660395752713
H 5.044712449664006 4.619724232514197 -1.4644379232105482
O 6.461111128914512 -6.791932269498265 8.29009110382246
H 6.807394525116079 -6.19863892868662 7.60667455576142
H 5.534353703422703 -6.92250074788444 8.039024397452001
O -2.2988961313057388 -6.366079587477703 7.340590717374976
H -1.6553539086681295 -6.384507435715143 6.616379989070027
H -2.12363741239228 -7.183653675695208 7.830303833413468
O -10.46638573455827 3.6769567116055786 0.531630021466964
H -11.095748018808788 4.112531576595011 -0.06263003023801872
H -10.831087028329543 3.8349871508818625 1.415361480046835
O -5.42808511954898 -9.425767957864782 -7.4810027284269625
H -5.478987723998083 -9.366072842704904 -6.5151803974641975
H -6.148598389392303 -10.029394599924732 -7.716496782014541
O 1.464490987621756 5.303845931917597 -6.181964301711356
H 1.418755521091446 5.734800424458585 -7.04865562470934
H 1.0108834750494062 5.9216946224174265 -5.589119326624638
O -8.55984436388837 -6.402825839966582 0.347798618517265
H -8.082746762427048 -6.181954991597249 1.1617773061500962
H -9.001162960683367 -5.575515449206177 0.10334543739097901
O -1.2248400374510025 -2.9390714335540875 6.192269708362285
H -1.0069745765916926 -2.9717999917646982 5.2486432783901185
H -0.37125536069273773 -3.0625461393199185 6.633981312171297
O 10.661446595544277 -0.6870710064390413 5.72685673580595
H 10.028063022333507 0.04435373094177564 5.6738429674607085
H 11.29449783800803 -0.4000244767138661 6.4019955056065205
O -0.6772868468164792 -10.672835635023755 -2.2244730128446673
H -0.3869089237221073 -11.410713798509025 -1.6675315127470305
H -1.4601185471349594 -10.329234336088165 -1.768321041845692
O -0.6723659038127048 6.916894045844273 -6.205174641641062
H -1.1826740532648952 6.521005114387505 -6.927549131398765
H -0.8895418967477027 7.859948697096559 -6.254616093320069
O 0.9936907022159365 2.527274642748937 5.774906044121031
H 0.9862814899152681 2.5695508018541418 6.742958308642113
H 0.7828151352513607 3.4320618537317342 5.4994908259515585
O 10.496471201360123 -5.0542344584260235 -1.6822102053313719
H 10.182828466020375 -4.2266837944499 -2.076868906009918
H 10.641806015257528 -5.636162901381679 -2.4432614673687025
C -7.052113197806376 -3.17900518266599 -1.470246745926649
O -7.342053607507931 -2.2117671110034895 -0.8274378094231933
O -6.762172788104822 -4.14624325432849 -2.1130556824301037
O -4.6816614788228 -11.606010487210023 -4.887813197309075
H -5.147709932924292 -12.45435341525294 -4.933425386131607
H -4.173196535199176 -11.662241684670144 -4.0648530537796175
O -11.707429079943264 9.872615248704555 -0.6894132571417957
H -11.582173082105633 9.9053827934454 0.2709015766066773
H -10.820733079365274 9.690159082371451 -1.0350169235373086
O 2.9292109902236976 2.711525679122237 -13.58242527249305
H 2.204894705531768 2.8150761641948705 -12.947121743720146
H 2.5536184099449852 3.0252336236010784 -14.418774173078468
O 12.653707410336105 -8.982633671959404 -2.8598693278360394
H 12.951268221181223 -9.904005364446709 -2.821150791806417
H 11.71952185393545 -9.027523553830846 -2.6064049535781035
O -7.549908483822539 -8.499118517732414 21.02115151755695
H -7.636553496789761 -7.593175845246269 20.6883935382438
H -8.209891752108689 -8.997918507909102 20.516589727800664
O -15.058655178759249 1.2026594629758014 10.858856258372077
H -15.557465674509423 2.031020088155458 10.79581562955672
H -14.15021283281304 1.4592465051422074 10.640092600092093
O -8.679394713746138 -15.320285788084217 -9.850925282652293
H -8.79477831426817 -14.61175630387903 -9.200048987460567
H -7.752814201230977 -15.239734057145139 -10.122811135115892
O -8.26264690143595 11.723080795065606 2.88396157010907
H -8.321234570938758 12.326846808083047 2.128315195534788
H -7.346026017651721 11.813194720620519 3.1850389358005176
O -2.293203433211752 6.260790670609714 -12.624701039735157
H -2.3160608235265356 6.991590901665833 -13.260606629344435
H -2.6819998858239416 5.516932620513909 -13.108926673137443
O 1.2552040114353815 -19.4938508035197 -1.0369612125992222
H 0.9197559070371533 -19.297514512299557 -0.14932728641931675
H 1.2845426839317842 -20.46193310577376 -1.0672571307834584
O -6.810812038458565 3.859457680104022 22.667867506132662
H -6.388361174075342 4.394480231860298 23.356528157828457
H -6.917516356642371 4.474149001937892 21.92642923382467
O 0.33287522950681936 -16.173536170821627 -5.443258824394601
H -0.3253406124283833 -16.8809780775293 -5.370834995723755
H -0.008645479699684211 -15.475877436481724 -4.863950754467789
O -9.018351081280175 1.275870402366747 6.177245608503978
H -9.83535195330068 0.8753655058148917 5.843969807018603
H -8.806213757656497 0.753574892778353 6.965387157268908
O 7.530988146480317 10.549153118243286 6.603187930240616
H 7.946167611671038 10.47344247957067 5.730914310453949
H 7.6891403000453185 9.685641122447189 7.013427949910801
O -4.757604920901051 -16.655063181219653 -13.460106141093792
H -4.942447596819788 -16.652292231623342 -14.411312146067235
H -5.610147873210094 -16.877217102622794 -13.056645989438898
O -16.44608468966119 4.506275358342808 1.561772153226997
H -16.37049521239529 4.036740488833822 2.4060414195999065
H -16.86021158125478 3.859728754890094 0.9706390451009277
O -16.396663915186352 14.096879487515427 6.583583065742923
H -16.340784309920053 13.222250433889197 6.170220216458943
H -16.12383787364152 13.940449829186287 7.500129658857537
O -2.018569143109538 -18.76533452843684 -5.864427519686245
H -2.421515638668997 -18.512672139474954 -6.708680559846851
H -2.756274842301228 -19.130081760360753 -5.352849859419555
O 12.009153591689229 6.706400983651649 1.322359258171418
H 11.929518167638465 5.74185436297517 1.2746583915352536
H 12.926951365951163 6.878562714693316 1.0635745441240543
O -14.830841114623567 9.491815378187509 7.861873237923142
H -13.93819277056809 9.40744413350915 8.229334506394313
H -15.334335957064068 9.925240131972087 8.56727941222458