194

C -5.0710522388059704 1.0783507462686561 0.47044029850746183
C -3.8153522388059704 0.1782507462686569 0.19534029850746193
C -4.11845223880597 -1.3219492537313435 0.5608402985074619
C -2.96945223880597 -2.3874492537313436 0.7034402985074619
C -2.52015223880597 0.7359507462686565 0.7384402985074618
C -2.20305223880597 0.7852507462686571 2.097440298507462
C -1.5755522388059702 1.205650746268656 -0.18965970149253808
C -0.9533522388059701 1.2695507462686564 2.508640298507462
H -2.91125223880597 0.4298507462686567 2.840840298507462
C -0.32655223880597006 1.6562507462686575 0.21554029850746192
H -1.7850522388059702 1.178550746268657 -1.2573597014925382
C 0.004447761194029898 1.6956507462686563 1.569740298507462
H -0.7158522388059702 1.2676507462686573 3.5705402985074617
H 0.3943477611940298 1.9193507462686572 -0.5551597014925382
C -1.76045223880597 -2.1592492537313435 -0.1734597014925381
C -0.5287522388059701 -1.936549253731343 0.464840298507462
C -1.8068522388059702 -2.121249253731343 -1.5681597014925381
C 0.6114477611940299 -1.614449253731343 -0.2582597014925381
H -0.4544522388059702 -1.954049253731343 1.5506402985074619
C -0.6479522388059701 -1.8270492537313432 -2.2998597014925384
H -2.74345223880597 -2.290549253731343 -2.092259701492538
C 0.5698477611940298 -1.5506492537313434 -1.6506597014925382
H 1.5072477611940298 -1.351949253731343 0.2991402985074618
H -0.7173522388059701 -1.7640492537313435 -3.3840597014925375
C 1.7791477611940298 -1.082849253731343 -2.4255597014925376
H 1.4739477611940297 -0.9102492537313429 -3.464259701492538
H 2.1252477611940295 -0.1337492537313434 -2.0010597014925384
C 1.3965477611940298 2.0964507462686566 1.997440298507462
H 1.51704776119403 1.8448507462686567 3.057640298507462
H 2.1256477611940294 1.5207507462686571 1.4165402985074618
C 3.94864776119403 -1.4275492537313434 -3.522959701492538
H 4.81734776119403 -2.087049253731343 -3.615159701492538
H 3.4305477611940303 -1.3641492537313429 -4.484459701492538
H 4.26984776119403 -0.441449253731343 -3.176459701492538
C 2.60904776119403 -3.4296492537313434 -2.8992597014925376
H 1.9825477611940296 -3.869549253731343 -2.119359701492538
H 2.06294776119403 -3.373349253731343 -3.845759701492538
H 3.5215477611940305 -4.019849253731343 -3.0234597014925377
C 3.7281477611940304 -2.060049253731343 -1.156659701492538
H 3.9048477611940298 -1.032549253731343 -0.8295597014925382
H 3.12924776119403 -2.623249253731343 -0.4404597014925382
H 4.68244776119403 -2.5769492537313434 -1.3005597014925383
C 3.1110477611940297 3.755250746268656 2.588740298507462
H 3.40124776119403 4.809350746268656 2.534540298507462
H 2.9823477611940303 3.461750746268656 3.634840298507462
H 3.86514776119403 3.1392507462686563 2.091540298507462
C 1.99744776119403 3.9574507462686572 0.40494029850746194
H 2.67914776119403 3.230350746268657 -0.04295970149253803
H 1.03214776119403 3.981150746268657 -0.10175970149253821
H 2.4399477611940297 4.958250746268657 0.368240298507462
C 0.7418477611940297 4.4992507462686575 2.475440298507462
H -0.18475223880597014 4.424250746268656 1.901240298507462
H 0.57844776119403 4.189650746268656 3.511940298507462
H 1.1210477611940297 5.524350746268658 2.4432402985074617
N 3.00114776119403 -2.025349253731343 -2.490159701492538
N 1.7831477611940298 3.586450746268657 1.862540298507462
C -3.55075223880597 -3.8435492537313434 0.6444402985074619
H -2.62515223880597 -2.2736492537313433 1.7424402985074618
H -4.67195223880597 -1.3478492537313436 1.5102402985074619
H -4.83415223880597 -1.6757492537313432 -0.1945597014925382
H -3.7169522388059697 0.17335074626865676 -0.900559701492538
H -3.9132522388059705 -4.043149253731343 -0.34225970149253815
H -4.35435223880597 -3.9354492537313432 1.3449402985074619
H -2.78115223880597 -4.545049253731343 0.8904402985074619
H -5.24235223880597 1.138950746268657 1.5249402985074618
H -5.92805223880597 0.6501507462686567 -0.006059701492538094
H -4.89895223880597 2.059650746268657 0.08004029850746197
C 2.1068780033615373 2.507935553000501 -3.310322721220489
O 2.23847519691904 2.5151757332314304 -2.0960718175609476
O 2.2792382920655445 1.5247176839937413 -4.039847235574651
O 1.7809744656059063 3.4827197534097287 -3.9975134015348446
O 0.8332298107638016 -4.767824056940289 4.3758115431495
H 0.3708241137976846 -4.5727906119768695 3.5468903866701997
H 1.2218101758536077 -5.642896951588905 4.22676566693025
O 2.7264560104303435 -2.017349527419587 -6.575116981777029
H 3.659491797370558 -2.25995476126088 -6.672862967380867
H 2.705720841764547 -1.0737755360524615 -6.794662238833311
O -6.967128860631164 0.5966299442904379 -7.410766467258796
H -6.888305997022416 0.42297486813388496 -6.460714769929865
H -7.873777621119544 0.3286733848322416 -7.62324999991065
O -1.5916549668697146 0.8681627074375351 6.748733174690254
H -1.5450909307067455 1.0931947489488056 7.6900937473347035
H -0.6803680413437353 0.9751168665098104 6.437158317677449
O -3.3511986470761617 -9.142317592412674 -0.5711755281356827
H -3.2440399059044873 -9.27853015963869 0.38220293691384893
H -2.6940831787643162 -8.463312873060627 -0.7859167600939406
O -2.916686766263518 7.2559239386590795 -4.071207550658872
H -2.966133704582981 6.717110518580618 -3.2673403629131705
H -2.1369400848178266 7.813953439029902 -3.9313500024524184
O 5.552395419085901 0.3181113370517812 12.14956439976337
H 4.607532987571056 0.4821447703969959 12.010656606040921
H 5.921101746689286 1.1989181391583221 12.314479425300988
O 5.784698070740665 -0.22412135559249566 1.9832488493162903
H 4.956804733369244 -0.6713765056012712 1.7518988771385509
H 5.52665028368345 0.40225783160852535 2.6760853363291077
O 5.335985715981482 3.646650112531101 -7.573272578324135
H 5.9828374979023495 2.9771952587166925 -7.304236655387943
H 5.76045111195382 4.4872999594865455 -7.345020728965066
O -1.1176913530460375 -7.806929654080427 2.9518966048192725
H -0.5543734102786195 -7.614515340953522 2.187294103933886
H -1.0571585853833612 -7.00642831612281 3.494570849893755
O -4.020214146045287 9.839551066675536 0.37314587344105865
H -4.103355598839446 9.262717706335858 -0.4010105255678962
H -4.41940236555136 10.674742361638748 0.08667386691119239
O 2.1810245998121083 -2.9390395121591526 -8.634550939353641
H 1.6113784806762497 -3.66193618643674 -8.331415566670314
H 2.4145239449805938 -3.189424022071266 -9.541053888770772
O -7.388262009034703 3.6335127435673606 -5.246716539401814
H -6.507681776074252 4.015195327233774 -5.38037362131314
H -7.429866541689402 3.4693825340572553 -4.292624153157824
O 7.030979913311908 7.613699270494647 4.69093484219491
H 6.392713614023158 8.120341806961578 5.215240886728633
H 7.197489887650114 8.174916639145252 3.9187487002117862
O 9.359720614243574 1.756748634254141 5.453086197374337
H 10.095613897734022 1.1395303042798657 5.581421560222683
H 9.504065731437072 2.1112089422827953 4.562870312616809
O -2.1494345420018135 8.75882946763806 0.05682420079290562
H -2.5900272299571676 8.379099166194278 0.8318405479661066
H -1.2055447988089592 8.65662016253675 0.250698786404415
O -3.7799511903545557 3.8846196610389496 -4.853179429087484
H -3.667115318598486 3.5443422582081108 -3.9529312899237605
H -3.014229853638092 4.46431329628413 -4.981974103097623
O 5.505200849619813 4.0058840804087055 1.307445788417698
H 5.91039570705068 3.3854219811529154 1.931794463277091
H 5.372293798976298 3.4779760249155416 0.5058157333831648
O -0.8047381716523945 6.428499933629478 7.66653180356384
H -0.715453856826318 6.333140108274956 6.706374435350486
H -1.7342792006021042 6.214786139911682 7.8375342426513
O -1.4092650010755596 -6.010165554251939 -9.277908905057114
H -1.6669230094430683 -5.107260800794214 -9.038445517860794
H -0.4941443451733951 -6.082508681015859 -8.967614526359707
C -14.590657358228482 -9.447057074468942 11.784134694006994
O -15.280651756316304 -9.365155857388862 12.758823453841753
O -13.900662960140663 -9.528958291549023 10.809445934172231
O 6.1536008128703505 -3.4364921275827447 14.12621288159761
H 5.760052099881932 -2.633396073938517 13.753220259651508
H 5.948565227301867 -4.122585138279639 13.473373901738519
O 1.804107738021015 7.3557457069811685 -20.0689813355624
H 1.3896153607154087 7.091749003613254 -20.90412753034893
H 2.538023844711989 7.9264893561724765 -20.342076153432217
O -14.526100340358688 -6.240613731115777 -5.830079528687254
H -15.465554272321977 -6.179618245263009 -5.600573064019473
H -14.473057028688611 -7.028403670784576 -6.3918048729113695
O -10.74633700375318 -2.5750915449256984 5.6155025913680925
H -10.726326970506792 -2.672586499813245 4.651624129506351
H -10.434950794536217 -1.6698626920426947 5.765706775456325
O -2.9946626078860916 -4.676090332542905 4.527068206923634
H -3.0104227395958345 -4.721348180898857 5.494885701243035
H -3.8024443979036504 -4.190372221587751 4.30228288554747
O 2.9584938898574977 9.404425817109173 3.4778308044158948
H 2.7577284117633902 9.371170195927165 2.53043719911478
H 3.8363958176283695 8.99984467400523 3.5453900240745986
O -20.440516382661198 -1.9928129810965292 2.3083293921167627
H -20.42946730751087 -1.7645589796312073 3.2500009833062773
H -20.33446269399527 -1.1405237070727505 1.859645145898586
O 2.2453168455486736 -14.419130337302981 8.711400809414945
H 2.9225894088765747 -14.743521255875695 8.09899590756421
H 1.435725370802488 -14.867219806342485 8.423756209162844
O -0.15656274011551752 -13.816752075800801 -5.253370505453889
H -0.533712100492384 -13.675917280319407 -4.37195614361887
H -0.4458533451687431 -13.041933255384732 -5.7582751357129
O 0.5677391429382945 -21.373840322303135 8.002267197003746
H 0.6791849197468531 -22.19220752416396 7.495490797938021
H 0.7470664212314726 -20.673030889216637 7.3575425968395045
O -3.0071650474551097 13.277673268345152 -9.383173011997663
H -3.8032302229590726 13.533965305360997 -9.872623709220695
H -2.544534216034395 12.677108230399543 -9.986709500800425
O -1.1994656900988598 -16.710645733956156 13.188111541427494
H -1.0339466396168753 -16.564242174409905 12.244640927905412
H -0.9249857665681116 -17.628397198556307 13.334244922633966
O 15.309818075761322 6.668787824600448 -10.07803077263595
H 15.299410340542106 6.771811896439935 -11.041485533675209
H 16.16424922956454 7.040529888636521 -9.81210374216198
O 13.90077706069054 -13.657070217306755 -0.6259672556747309
H 13.716694631440632 -12.778605726969705 -0.9911811044788541
H 13.022086280781052 -14.037086782716123 -0.4761277828495767
O -9.379595589620697 9.317304861184944 -4.062351722284994
H -8.757515159595128 9.260078655468023 -3.3216031435766387
H -9.50641543955182 8.395620688556829 -4.3332335339488095
O -2.6107839142581932 -8.177151377049633 -11.809413230971458
H -2.8913183810667644 -8.070209464711008 -10.88809287560217
H -2.9941746943245326 -7.410496516461506 -12.261313417734778
O -4.122352354686142 9.26375494791129 -6.324002436129656
H -4.324319059541768 8.914672304202913 -7.2050916001143985
H -4.177655467820738 8.487665402481735 -5.746431204632996
O 4.0536824936657965 12.2774776991307 14.953285850871493
H 4.044314192370791 12.223731944362218 13.985819579792643
H 3.2048678542743447 11.891808914247203 15.217360159771934
O -25.438470858769847 1.2670964870233448 2.4744571815655307
H -25.99649413067698 1.3658576664378952 1.6884396153809638
H -24.55593043507105 1.5254115911857848 2.168912337395162
O -0.3208030734726308 -11.82807630283193 -0.403527585691553
H 0.04863769764461878 -12.11429504985996 0.44533029545581426
H 0.3070624059808349 -12.16808239640642 -1.058617457650267