194

C -5.0710522388059704 1.0783507462686561 0.47044029850746183
C -3.8153522388059704 0.1782507462686569 0.19534029850746193
C -4.11845223880597 -1.3219492537313435 0.5608402985074619
C -2.96945223880597 -2.3874492537313436 0.7034402985074619
C -2.52015223880597 0.7359507462686565 0.7384402985074618
C -2.20305223880597 0.7852507462686571 2.097440298507462
C -1.5755522388059702 1.205650746268656 -0.18965970149253808
C -0.9533522388059701 1.2695507462686564 2.508640298507462
H -2.91125223880597 0.4298507462686567 2.840840298507462
C -0.32655223880597006 1.6562507462686575 0.21554029850746192
H -1.7850522388059702 1.178550746268657 -1.2573597014925382
C 0.004447761194029898 1.6956507462686563 1.569740298507462
H -0.7158522388059702 1.2676507462686573 3.5705402985074617
H 0.3943477611940298 1.9193507462686572 -0.5551597014925382
C -1.76045223880597 -2.1592492537313435 -0.1734597014925381
C -0.5287522388059701 -1.936549253731343 0.464840298507462
C -1.8068522388059702 -2.121249253731343 -1.5681597014925381
C 0.6114477611940299 -1.614449253731343 -0.2582597014925381
H -0.4544522388059702 -1.954049253731343 1.5506402985074619
C -0.6479522388059701 -1.8270492537313432 -2.2998597014925384
H -2.74345223880597 -2.290549253731343 -2.092259701492538
C 0.5698477611940298 -1.5506492537313434 -1.6506597014925382
H 1.5072477611940298 -1.351949253731343 0.2991402985074618
H -0.7173522388059701 -1.7640492537313435 -3.3840597014925375
C 1.7791477611940298 -1.082849253731343 -2.4255597014925376
H 1.4739477611940297 -0.9102492537313429 -3.464259701492538
H 2.1252477611940295 -0.1337492537313434 -2.0010597014925384
C 1.3965477611940298 2.0964507462686566 1.997440298507462
H 1.51704776119403 1.8448507462686567 3.057640298507462
H 2.1256477611940294 1.5207507462686571 1.4165402985074618
C 3.94864776119403 -1.4275492537313434 -3.522959701492538
H 4.81734776119403 -2.087049253731343 -3.615159701492538
H 3.4305477611940303 -1.3641492537313429 -4.484459701492538
H 4.26984776119403 -0.441449253731343 -3.176459701492538
C 2.60904776119403 -3.4296492537313434 -2.8992597014925376
H 1.9825477611940296 -3.869549253731343 -2.119359701492538
H 2.06294776119403 -3.373349253731343 -3.845759701492538
H 3.5215477611940305 -4.019849253731343 -3.0234597014925377
C 3.7281477611940304 -2.060049253731343 -1.156659701492538
H 3.9048477611940298 -1.032549253731343 -0.8295597014925382
H 3.12924776119403 -2.623249253731343 -0.4404597014925382
H 4.68244776119403 -2.5769492537313434 -1.3005597014925383
C 3.1110477611940297 3.755250746268656 2.588740298507462
H 3.40124776119403 4.809350746268656 2.534540298507462
H 2.9823477611940303 3.461750746268656 3.634840298507462
H 3.86514776119403 3.1392507462686563 2.091540298507462
C 1.99744776119403 3.9574507462686572 0.40494029850746194
H 2.67914776119403 3.230350746268657 -0.04295970149253803
H 1.03214776119403 3.981150746268657 -0.10175970149253821
H 2.4399477611940297 4.958250746268657 0.368240298507462
C 0.7418477611940297 4.4992507462686575 2.475440298507462
H -0.18475223880597014 4.424250746268656 1.901240298507462
H 0.57844776119403 4.189650746268656 3.511940298507462
H 1.1210477611940297 5.524350746268658 2.4432402985074617
N 3.00114776119403 -2.025349253731343 -2.490159701492538
N 1.7831477611940298 3.586450746268657 1.862540298507462
C -3.55075223880597 -3.8435492537313434 0.6444402985074619
H -2.62515223880597 -2.2736492537313433 1.7424402985074618
H -4.67195223880597 -1.3478492537313436 1.5102402985074619
H -4.83415223880597 -1.6757492537313432 -0.1945597014925382
H -3.7169522388059697 0.17335074626865676 -0.900559701492538
H -3.9132522388059705 -4.043149253731343 -0.34225970149253815
H -4.35435223880597 -3.9354492537313432 1.3449402985074619
H -2.78115223880597 -4.545049253731343 0.8904402985074619
H -5.24235223880597 1.138950746268657 1.5249402985074618
H -5.92805223880597 0.6501507462686567 -0.006059701492538094
H -4.89895223880597 2.059650746268657 0.08004029850746197
C -2.3874031208856636 3.941625681685429 -0.5991498156091827
O -1.481923265560575 3.2097071169265345 -0.968171420344914
O -2.5211565040720867 4.3877225147986 0.5461619812708572
O -3.31011513380697 4.3494874830307015 -1.3139222805335815
O 2.5803214793484397 -7.508092156441009 5.6837128167756585
H 2.558711372793552 -7.6435810067078895 4.72447190248559
H 2.101375968131732 -6.675770473635394 5.813380692199742
O 1.3237701836453555 2.2522693981762067 -8.293212880155373
H 1.8142413190853874 2.6501498570961752 -9.028125502587322
H 1.1441918501808308 1.3486908529240411 -8.593644867483757
O -3.89637830805941 2.467905449821599 -3.7898465564192327
H -3.146054788823383 3.0734442002652145 -3.8863079222215546
H -4.00964272436397 2.0925440004582954 -4.675982493299724
O -2.6507825488728898 -7.712221037427758 -5.929060917640506
H -3.167555813112975 -6.893869373577153 -5.976106688328133
H -3.11848024700364 -8.318828864736375 -6.522565552256883
O -0.6706816452777316 -7.285055933813944 1.0891606807694831
H 0.2610281007276237 -7.526908080008298 0.9778420144110407
H -0.9782162677198265 -7.861429007901576 1.8048271392305248
O 2.8648422895548924 -6.7592438810037745 1.1856414423152364
H 3.0657773242695203 -6.232979768506737 0.3972008595051313
H 2.6163855323917766 -7.626230872386956 0.8312902875374868
O -1.7643219995773158 3.43820113582255 11.336503825316417
H -1.5310596854127212 2.921052969095129 12.122069750838296
H -2.732644554287062 3.4084858844743855 11.315758267292942
O -0.4333264867046043 -3.122047880598371 4.236524126035703
H -0.7431003757950205 -2.6032539203028087 4.994059815821106
H 0.5324623222652125 -3.076870457208789 4.301122277592383
O -6.340244552726986 0.19842180052493041 -9.166596930377343
H -5.957039620037866 0.8110795113480154 -8.52101822422933
H -6.687991505241319 -0.5255375722605342 -8.624455963586353
O 3.269559031900769 -2.361014362536587 -7.703120129756287
H 3.293850174945929 -2.40630298733429 -8.670759648241084
H 4.146035827363583 -2.025114613162636 -7.4624507929355115
O -2.5494289658281692 0.16028184053455607 5.2902822700150525
H -2.8493736047626474 0.13572773108170644 6.21136731830508
H -3.1027888421905137 0.8429977725178536 4.88204980223667
O 7.6716241157176 -5.141648400347994 -0.8832515521168702
H 7.13681285412347 -4.339557224726979 -0.9812006070535844
H 7.3345575181789435 -5.550060050692352 -0.07174186210281341
O -3.914392401005812 3.4641840570023046 -8.631335881550248
H -4.433791557256896 3.1948752316050566 -9.403776578269948
H -4.211927927544394 4.368987383669618 -8.45310711058672
O 9.054784684438474 3.221154594212824 -6.386916487263981
H 9.0740097459446 3.606235301382766 -5.497922334934742
H 9.248089643750484 2.2830843554222886 -6.239881239446159
O -0.8568319347834326 -7.757436497914683 5.6012882000185975
H -1.2211184267744644 -8.106840892698699 4.77413689731849
H -0.899145672241044 -6.796012189385755 5.487997463892291
O 8.738391696976592 0.7050416517525686 -1.5431434269532485
H 8.082236344843658 0.6659747181031452 -0.8311734237490844
H 9.25522769858587 1.4995835158010098 -1.3417837536942705
O 3.576724238366119 -4.34979783627165 6.67391943734928
H 3.765442085415333 -5.24097465113124 6.343530551698102
H 3.6409946585811404 -3.7895495317960917 5.8859136666104845
O 0.16674995566148004 3.6044773994127444 -3.137099819799716
H 0.10559400888470773 4.293285752532141 -3.8159004972793302
H -0.6116012028628358 3.049584750210108 -3.295925403962769
O -2.087675801553081 9.07143687046507 7.847902119001042
H -2.0803261670570152 9.027611142534022 6.879918314723261
H -1.1621738339704266 9.2380218678588 8.081691534809293
O -8.189293264653026 5.134571002491159 -6.205866681014827
H -7.814028369182106 5.340526205433095 -5.33654161551381
H -7.765075297589791 4.298822347416742 -6.451885473512554
C -9.460878697666764 -16.21214198322781 -0.8113116440046193
O -10.558729690865885 -16.65700042625579 -0.6391419030556706
O -8.363027704467644 -15.767283540199829 -0.983481384953568
O 9.511130908993358 8.636589992189634 -12.670179173507327
H 9.669259692460948 8.843507164015282 -11.736826116651168
H 8.54749571385467 8.555655659378127 -12.731975522609659
O -13.721383314345903 8.464104717402293 -2.6307646715259763
H -12.795428986904666 8.685419305556277 -2.8113077230762205
H -14.168345458393565 9.323684680832988 -2.613184212009652
O -10.358605058853218 -0.23198162026947866 -4.618452545229345
H -10.37469912210765 -0.16427066354868902 -5.584953225191816
H -10.278492361600659 -1.183169149539519 -4.451760661203531
O -12.51747036461763 7.893271332902814 -11.868818874937462
H -12.367692847665873 7.903270311967647 -10.911513243107466
H -11.686617619669963 8.227114046758606 -12.239216908029332
O 17.40267317778155 -5.852357487414977 13.221264296205996
H 17.524364347222118 -5.73168780358897 14.17499247739051
H 16.682153810927044 -6.497089676498955 13.156966624035373
O -9.41697906198796 -6.013336946281398 4.663553251889796
H -9.404649511597333 -6.240227154361026 3.721568022406473
H -8.844626844253293 -6.679860752849187 5.072357481849068
O 1.073968093668758 -20.517504274534716 3.637926473722219
H 0.5677822516190592 -21.253711322048304 3.2627699285310623
H 1.7099644263549403 -20.29229528275222 2.9424039944808653
O -4.708060423651556 -1.708759898979563 -15.509184960474112
H -5.550989821710285 -1.3372044144318562 -15.809824127401624
H -4.079604772994481 -1.4532745105643827 -16.201090052060767
O -6.485248281567986 -11.271344397074685 -5.84117924956913
H -6.907522020412211 -11.158473008617921 -6.705998476951572
H -7.160995334324359 -10.979662073974888 -5.210902098323599
O 4.080429223357725 9.231644569934584 -8.607446042286682
H 3.234957365450148 8.939492135788928 -8.234898529063091
H 4.676440770463394 8.484041026411546 -8.449898837524104
O -4.88264303394731 -16.775561630033867 -0.7194352993557259
H -5.029731286933493 -16.257379445542334 0.08605810620949453
H -5.762202636847646 -17.115059789551037 -0.9432161049004735
O 6.3671876525644295 -12.88946106058277 -4.153972369679744
H 6.467689294865899 -12.825742677809034 -3.1923036405991905
H 7.110579812326792 -12.3742378666541 -4.501643337035073
O -3.821278542293901 -18.848767281671915 -4.638847602608106
H -3.805098278716514 -18.844355635711146 -5.6077057415275675
H -2.8909469501958505 -18.744400219515683 -4.3887424459615785
O -16.746344579573964 4.762577013232882 11.316498055133664
H -16.873974450181105 4.679049130536823 10.35957534882917
H -17.64666744577123 4.750906566420733 11.674610441925227
O -17.825786748494117 12.391843412237073 2.9413333360545924
H -17.844615935321197 12.609991954469049 3.88527402918393
H -18.49320431685689 11.695473263651875 2.8486815692060707
O -17.469320373611332 8.095964084136131 -2.9939744013296306
H -16.988539589395835 7.435236954938743 -2.4731511537957678
H -18.34775101041555 7.705060969438048 -3.11445807467613
O 14.813372100267742 2.5992185392816003 -3.1125940126163667
H 14.30708413617398 2.7928681570597194 -2.309388136238346
H 15.673764259245923 2.301501490213334 -2.7808533974319323
O -16.170125825988528 -5.189844431362574 -8.776020949150674
H -16.561104727687173 -5.74177701916332 -9.469903701386306
H -15.925450845699677 -4.373179370711571 -9.23662303016263
O -8.846796173175289 7.893049176343373 -5.921532767797036
H -9.252012635760355 8.171845324361913 -6.7564217922787755
H -8.832758198089124 8.701069176799034 -5.3868659945455875
O 2.3652759717920473 -11.861851520665386 11.725744591663645
H 2.1312816646427333 -11.548151228917034 12.612201667939036
H 1.5834019316326966 -11.6573427608775 11.19113155703494