194

C -5.0710522388059704 1.0783507462686561 0.47044029850746183
C -3.8153522388059704 0.1782507462686569 0.19534029850746193
C -4.11845223880597 -1.3219492537313435 0.5608402985074619
C -2.96945223880597 -2.3874492537313436 0.7034402985074619
C -2.52015223880597 0.7359507462686565 0.7384402985074618
C -2.20305223880597 0.7852507462686571 2.097440298507462
C -1.5755522388059702 1.205650746268656 -0.18965970149253808
C -0.9533522388059701 1.2695507462686564 2.508640298507462
H -2.91125223880597 0.4298507462686567 2.840840298507462
C -0.32655223880597006 1.6562507462686575 0.21554029850746192
H -1.7850522388059702 1.178550746268657 -1.2573597014925382
C 0.004447761194029898 1.6956507462686563 1.569740298507462
H -0.7158522388059702 1.2676507462686573 3.5705402985074617
H 0.3943477611940298 1.9193507462686572 -0.5551597014925382
C -1.76045223880597 -2.1592492537313435 -0.1734597014925381
C -0.5287522388059701 -1.936549253731343 0.464840298507462
C -1.8068522388059702 -2.121249253731343 -1.5681597014925381
C 0.6114477611940299 -1.614449253731343 -0.2582597014925381
H -0.4544522388059702 -1.954049253731343 1.5506402985074619
C -0.6479522388059701 -1.8270492537313432 -2.2998597014925384
H -2.74345223880597 -2.290549253731343 -2.092259701492538
C 0.5698477611940298 -1.5506492537313434 -1.6506597014925382
H 1.5072477611940298 -1.351949253731343 0.2991402985074618
H -0.7173522388059701 -1.7640492537313435 -3.3840597014925375
C 1.7791477611940298 -1.082849253731343 -2.4255597014925376
H 1.4739477611940297 -0.9102492537313429 -3.464259701492538
H 2.1252477611940295 -0.1337492537313434 -2.0010597014925384
C 1.3965477611940298 2.0964507462686566 1.997440298507462
H 1.51704776119403 1.8448507462686567 3.057640298507462
H 2.1256477611940294 1.5207507462686571 1.4165402985074618
C 3.94864776119403 -1.4275492537313434 -3.522959701492538
H 4.81734776119403 -2.087049253731343 -3.615159701492538
H 3.4305477611940303 -1.3641492537313429 -4.484459701492538
H 4.26984776119403 -0.441449253731343 -3.176459701492538
C 2.60904776119403 -3.4296492537313434 -2.8992597014925376
H 1.9825477611940296 -3.869549253731343 -2.119359701492538
H 2.06294776119403 -3.373349253731343 -3.845759701492538
H 3.5215477611940305 -4.019849253731343 -3.0234597014925377
C 3.7281477611940304 -2.060049253731343 -1.156659701492538
H 3.9048477611940298 -1.032549253731343 -0.8295597014925382
H 3.12924776119403 -2.623249253731343 -0.4404597014925382
H 4.68244776119403 -2.5769492537313434 -1.3005597014925383
C 3.1110477611940297 3.755250746268656 2.588740298507462
H 3.40124776119403 4.809350746268656 2.534540298507462
H 2.9823477611940303 3.461750746268656 3.634840298507462
H 3.86514776119403 3.1392507462686563 2.091540298507462
C 1.99744776119403 3.9574507462686572 0.40494029850746194
H 2.67914776119403 3.230350746268657 -0.04295970149253803
H 1.03214776119403 3.981150746268657 -0.10175970149253821
H 2.4399477611940297 4.958250746268657 0.368240298507462
C 0.7418477611940297 4.4992507462686575 2.475440298507462
H -0.18475223880597014 4.424250746268656 1.901240298507462
H 0.57844776119403 4.189650746268656 3.511940298507462
H 1.1210477611940297 5.524350746268658 2.4432402985074617
N 3.00114776119403 -2.025349253731343 -2.490159701492538
N 1.7831477611940298 3.586450746268657 1.862540298507462
C -3.55075223880597 -3.8435492537313434 0.6444402985074619
H -2.62515223880597 -2.2736492537313433 1.7424402985074618
H -4.67195223880597 -1.3478492537313436 1.5102402985074619
H -4.83415223880597 -1.6757492537313432 -0.1945597014925382
H -3.7169522388059697 0.17335074626865676 -0.900559701492538
H -3.9132522388059705 -4.043149253731343 -0.34225970149253815
H -4.35435223880597 -3.9354492537313432 1.3449402985074619
H -2.78115223880597 -4.545049253731343 0.8904402985074619
H -5.24235223880597 1.138950746268657 1.5249402985074618
H -5.92805223880597 0.6501507462686567 -0.006059701492538094
H -4.89895223880597 2.059650746268657 0.08004029850746197
C -0.37959819657218463 3.0413627280383944 -3.493008036540891
O 0.33495677614047137 2.485613421375203 -2.6730510878448044
O -1.4087095541670782 3.673690634581923 -3.2289574800645346
O -0.18417834479121753 3.057445622243488 -4.713745848867475
O 8.48501973710811 -5.3633244237930375 5.565808357223771
H 9.21136294956747 -5.821623554892747 5.117082604622618
H 7.975250619445781 -4.968263656133965 4.842604111637234
O 1.3973793617154948 -3.801103355098811 10.724617274598625
H 2.2857330408694554 -3.5138425797133497 10.465240435697064
H 1.4541414056233526 -3.8970445835513647 11.687184308812046
O -5.744017989569253 -4.121284646538423 5.1993405044315555
H -6.165105971119597 -3.841662138654928 4.372621978100614
H -5.635455937979677 -5.078474652095981 5.094633682708306
O 3.0321233429196504 -4.526151221950189 -6.984601250799624
H 3.7026510255137266 -4.831612316289145 -6.355273431916439
H 3.5468087901992242 -4.1014387483600245 -7.687225011738256
O 7.710021245451021 2.888429624931443 -5.222531778727956
H 8.283805747799377 3.1827338431389434 -4.499258850359887
H 7.561896774980363 1.9490856481243806 -5.036375987026278
O -1.6702078276514796 2.9178073306357337 5.783297589644211
H -1.6254184588814427 2.901092530669881 6.7511208611185465
H -0.7762714176186334 2.669930722763539 5.503303256866992
O 3.3496943565315846 0.8365812234130279 -9.657055334025532
H 3.028778337865598 1.1322875438272222 -10.522236261884364
H 3.7075615105329196 1.641164762601163 -9.252656554533708
O -3.9918049606752875 5.67917733127636 3.94491607166608
H -3.846676744953084 5.773391159887888 2.99148599431397
H -4.1375274448664 6.587166094321395 4.250339233991922
O -4.063076313337795 9.38513982172001 -1.5311018522847313
H -3.786465854327177 9.33368366672315 -0.6038444581492768
H -5.025878054026626 9.282120203251651 -1.4942004886623481
O -5.704808001944179 -4.2189039316911625 -3.1477558290670573
H -6.162363828176301 -3.3692559208896653 -3.059959015217693
H -5.756716684457723 -4.6054564861031455 -2.2607132395273672
O 1.1192235914192752 8.511654145729924 2.1425468658896527
H 1.8317684199882964 8.907860390451537 2.6662527335512083
H 1.1528830048550611 7.571531183504342 2.374921141753729
O 3.038617658288042 -9.515810520360544 -4.90010996651913
H 3.5586440460522164 -8.699220424212433 -4.858630721085261
H 2.1209006575380993 -9.207163935508097 -4.938771788688417
O 4.34405902971463 7.371876769812376 0.9776820480264594
H 4.788183832453382 7.872811958441995 1.678242147721606
H 3.9327035326800517 6.629629735189326 1.4454618455302861
O 7.227119354104005 -0.4803498226201275 2.16559184506728
H 6.295062561861895 -0.6428545730275417 2.3749472821363353
H 7.2674457987766665 -0.5591246262418926 1.2006409382982293
O -3.4506507173761927 -2.18240834324357 4.076565744184247
H -3.248638409200505 -1.240360295886461 4.180025208305181
H -2.5899434912892128 -2.5874591699805687 3.8919611856778857
O 0.16195193424024756 -4.241262696257572 8.247895921322858
H 0.2905128100219341 -3.3090559156498434 8.016746670172823
H -0.5117091727943934 -4.219033751052362 8.944062949530835
O 0.7639054721251559 -2.1097741460042836 4.305473992390801
H 1.5904252649189754 -2.589545674116625 4.14531260555611
H 0.3766713142257716 -2.5597995989795335 5.07129952273722
O 1.2345269087360353 2.3738358053839557 -8.373887888191176
H 0.987069771000775 2.691026226976689 -7.492342337278633
H 2.108816577047844 2.7630697472847205 -8.525797264648387
O 5.68299580405306 -0.015212023282185072 -6.251018485183629
H 5.640672507420785 -0.01966945820655419 -5.282950188659012
H 4.763576981608393 -0.14919861654631839 -6.526115860779859
O -6.307797083146997 -5.207212500808657 1.8228966178151942
H -7.1405539071222535 -4.910791086610611 2.2199076683257255
H -6.205999468920143 -4.641513869563383 1.0427785186501104
C -7.404465658309573 2.2608968536858067 8.947750205046395
O -7.231690025896561 2.5077009259214913 7.78927940780023
O -7.5772412907225855 2.0140927814501213 10.10622100229256
O 2.043138465200192 2.1899721601841713 20.965424996875583
H 2.6825120108024105 1.9999765464608332 21.668326478485874
H 1.2512218899946586 1.6983216204313245 21.230207603886456
O 8.786116517290127 0.7592542468198831 -15.21893604526716
H 9.307956921071517 1.0518873586010944 -14.456692113332949
H 7.9322985416641085 0.5082540531848636 -14.83558801593471
O -1.4829513992910934 16.500356456938842 5.750124934115923
H -1.2537838634978336 15.747784028286835 5.1843649699338785
H -2.1034738573773533 16.128225219135167 6.394665208389993
O -10.811759854331045 4.26225126981814 -1.4093406668321804
H -10.73572872155207 4.584953414043304 -0.49881886596147695
H -10.151343668174043 3.5551907443142703 -1.462985970783506
O -0.2575643356602324 -12.087514156302593 -4.867353861955323
H -0.34468628589986405 -12.897740295367319 -4.343034563948171
H -1.0364406103448918 -11.565529073905935 -4.622720939418927
O -7.370562713562476 13.069190603762534 -10.531440882643368
H -6.445106314637913 13.114084986758034 -10.247746848576675
H -7.563847104898528 13.966371828089812 -10.842357172149814
O 17.64095501262406 -1.0415747398860482 -9.651362241696761
H 17.41479275479753 -0.9174003437892244 -8.717339378278098
H 18.577877496113036 -0.799056999338601 -9.69956338019583
O 10.861575243946731 8.249921599439745 2.531579541147939
H 11.02687297129048 8.531839631520622 3.4438110037837317
H 11.165754249821674 7.330107717724452 2.51209878939705
O -3.351067999965265 10.687487857672796 -7.8123904601397856
H -2.6253617221473933 10.987010274179667 -8.380372922233127
H -2.942090355833912 10.596170812158011 -6.938685459525035
O 9.471535739972 -1.0361077676077652 3.316245302091965
H 9.98271679627208 -0.263970912134057 3.030822876555513
H 9.956907063056754 -1.3661741643184262 4.087239982222377
O 5.715097729015585 -4.32293727714701 -3.116359424440341
H 6.13982013346981 -4.7631241324798195 -3.86790035376278
H 6.421064829646049 -3.7811050869518734 -2.732966317048261
O -2.3044032128010326 8.47152175823066 12.904348998792408
H -2.2130354259580054 8.093316512642222 12.016891914400832
H -1.4862100367091784 8.212766211486855 13.35442392358387
O -2.691942117775608 -20.841616370585275 -7.609247412143246
H -2.5906333578639873 -21.2312444023645 -8.490663255498141
H -2.253735641984382 -19.98044916441345 -7.68224105494073
O 1.9388800361787695 16.680030576643325 -2.3049285565635875
H 2.4450612437962347 16.2025471728369 -2.979285688241125
H 2.4744214219359133 17.467032651877194 -2.123861988642007
O -5.765424112648578 4.527144779068848 -0.45882069913108703
H -5.811076511812324 5.49076783822392 -0.5500008242418555
H -5.904313399373875 4.374789721737271 0.4879948303351487
O 8.78026252797212 -7.936656037184314 -7.562879899259643
H 8.903994449394828 -8.458546721308831 -8.369903989572371
H 8.241623085050112 -8.507919182490497 -6.994999706222807
O -7.7058875053943625 10.746498566720833 13.480292941660624
H -8.377647646920334 11.442886405784119 13.427855867354586
H -7.097819033612617 11.05908268268366 14.166955776225555
O -5.898650412655369 -11.031105647193826 -7.493175761520627
H -5.59005559913847 -11.948955666151877 -7.529063651806601
H -6.59746166875446 -11.045195401703683 -6.822037734385325
O -10.531953293052796 5.16882980985077 16.991743967185855
H -10.645106791437046 4.826844589097272 17.89130483310299
H -10.277481394448822 4.389403534580335 16.475313256887805
O -9.56372608032078 -7.452616847334054 15.505497640215738
H -10.430554105240335 -7.67765051002315 15.875546802856054
H -9.069172243364648 -7.10466633005564 16.26266927477269