194

C -5.0710522388059704 1.0783507462686561 0.47044029850746183
C -3.8153522388059704 0.1782507462686569 0.19534029850746193
C -4.11845223880597 -1.3219492537313435 0.5608402985074619
C -2.96945223880597 -2.3874492537313436 0.7034402985074619
C -2.52015223880597 0.7359507462686565 0.7384402985074618
C -2.20305223880597 0.7852507462686571 2.097440298507462
C -1.5755522388059702 1.205650746268656 -0.18965970149253808
C -0.9533522388059701 1.2695507462686564 2.508640298507462
H -2.91125223880597 0.4298507462686567 2.840840298507462
C -0.32655223880597006 1.6562507462686575 0.21554029850746192
H -1.7850522388059702 1.178550746268657 -1.2573597014925382
C 0.004447761194029898 1.6956507462686563 1.569740298507462
H -0.7158522388059702 1.2676507462686573 3.5705402985074617
H 0.3943477611940298 1.9193507462686572 -0.5551597014925382
C -1.76045223880597 -2.1592492537313435 -0.1734597014925381
C -0.5287522388059701 -1.936549253731343 0.464840298507462
C -1.8068522388059702 -2.121249253731343 -1.5681597014925381
C 0.6114477611940299 -1.614449253731343 -0.2582597014925381
H -0.4544522388059702 -1.954049253731343 1.5506402985074619
C -0.6479522388059701 -1.8270492537313432 -2.2998597014925384
H -2.74345223880597 -2.290549253731343 -2.092259701492538
C 0.5698477611940298 -1.5506492537313434 -1.6506597014925382
H 1.5072477611940298 -1.351949253731343 0.2991402985074618
H -0.7173522388059701 -1.7640492537313435 -3.3840597014925375
C 1.7791477611940298 -1.082849253731343 -2.4255597014925376
H 1.4739477611940297 -0.9102492537313429 -3.464259701492538
H 2.1252477611940295 -0.1337492537313434 -2.0010597014925384
C 1.3965477611940298 2.0964507462686566 1.997440298507462
H 1.51704776119403 1.8448507462686567 3.057640298507462
H 2.1256477611940294 1.5207507462686571 1.4165402985074618
C 3.94864776119403 -1.4275492537313434 -3.522959701492538
H 4.81734776119403 -2.087049253731343 -3.615159701492538
H 3.4305477611940303 -1.3641492537313429 -4.484459701492538
H 4.26984776119403 -0.441449253731343 -3.176459701492538
C 2.60904776119403 -3.4296492537313434 -2.8992597014925376
H 1.9825477611940296 -3.869549253731343 -2.119359701492538
H 2.06294776119403 -3.373349253731343 -3.845759701492538
H 3.5215477611940305 -4.019849253731343 -3.0234597014925377
C 3.7281477611940304 -2.060049253731343 -1.156659701492538
H 3.9048477611940298 -1.032549253731343 -0.8295597014925382
H 3.12924776119403 -2.623249253731343 -0.4404597014925382
H 4.68244776119403 -2.5769492537313434 -1.3005597014925383
C 3.1110477611940297 3.755250746268656 2.588740298507462
H 3.40124776119403 4.809350746268656 2.534540298507462
H 2.9823477611940303 3.461750746268656 3.634840298507462
H 3.86514776119403 3.1392507462686563 2.091540298507462
C 1.99744776119403 3.9574507462686572 0.40494029850746194
H 2.67914776119403 3.230350746268657 -0.04295970149253803
H 1.03214776119403 3.981150746268657 -0.10175970149253821
H 2.4399477611940297 4.958250746268657 0.368240298507462
C 0.7418477611940297 4.4992507462686575 2.475440298507462
H -0.18475223880597014 4.424250746268656 1.901240298507462
H 0.57844776119403 4.189650746268656 3.511940298507462
H 1.1210477611940297 5.524350746268658 2.4432402985074617
N 3.00114776119403 -2.025349253731343 -2.490159701492538
N 1.7831477611940298 3.586450746268657 1.862540298507462
C -3.55075223880597 -3.8435492537313434 0.6444402985074619
H -2.62515223880597 -2.2736492537313433 1.7424402985074618
H -4.67195223880597 -1.3478492537313436 1.5102402985074619
H -4.83415223880597 -1.6757492537313432 -0.1945597014925382
H -3.7169522388059697 0.17335074626865676 -0.900559701492538
H -3.9132522388059705 -4.043149253731343 -0.34225970149253815
H -4.35435223880597 -3.9354492537313432 1.3449402985074619
H -2.78115223880597 -4.545049253731343 0.8904402985074619
H -5.24235223880597 1.138950746268657 1.5249402985074618
H -5.92805223880597 0.6501507462686567 -0.006059701492538094
H -4.89895223880597 2.059650746268657 0.08004029850746197
C -0.050645215489943496 2.1280690332672063 -3.7254334552476447
O -0.41844955928777683 2.534798352185441 -4.81679348952403
O 1.0028014518619224 2.4490504182982216 -3.1634258631202616
O -0.6749714988113509 1.3325323152956599 -3.0141062403084597
O 7.079814377163217 -0.37265660523305366 -3.6386591288733854
H 7.888301326656383 -0.8585521082968828 -3.8605189258208883
H 6.873264076020421 0.11966549612030325 -4.4473110106598766
O 4.96808830652502 0.6768399167935547 3.138471675128204
H 5.141091062656635 0.3467639498843452 4.032947644251923
H 4.011093931450656 0.5697665012464944 3.030494853267615
O 2.868956057428713 11.463915499117999 7.61659005414735
H 3.3016654753302834 10.599925094904883 7.689050374233188
H 3.248305589732418 11.8489613156572 6.8123540217497585
O -0.7133697930821472 -7.272582745005792 -1.453114553412681
H -0.5787240565159921 -8.219761284679329 -1.2991967295375155
H -1.5316914585761012 -7.071703382896267 -0.9746178679887675
O 4.092832336617427 -6.79542322219965 8.147974278647808
H 4.552972898981748 -6.297483925415365 8.84028524669975
H 3.8825605474861664 -6.126597497408296 7.479079766147625
O 6.727385730384488 2.6175382478384708 3.743997806138023
H 7.585558535274442 2.343500758554822 3.3870520843336815
H 6.613324719977036 3.52065112796043 3.4118244237566975
O -6.302977527083048 -6.0714772464964035 -0.3345691084668321
H -5.4774186467332795 -5.914918351051393 0.14803756806456114
H -6.378525306155526 -5.3058289100669125 -0.9236676590506616
O 0.5068366493565355 9.17018177092441 -0.8771892891802122
H 0.28328253389928504 9.343017196080135 -1.8040759220395755
H 0.6685302036475336 8.21516627560619 -0.8495751170427348
O -3.614561306817661 1.0956373010139182 6.922068352777801
H -3.899070674417334 0.7484255454103302 7.780826626926417
H -2.7889584329850488 1.5625965350876392 7.120287707868608
O -3.583379834245672 -5.052803162195069 -7.38619978863358
H -3.653041192734385 -4.8038835507697275 -8.320091473510026
H -4.3608575018918225 -5.610788813704793 -7.234073415769531
O -3.641106134713794 7.322248332262427 0.6946296085498451
H -2.764847291422516 6.990662976387883 0.44726560910088997
H -3.6359004352992264 8.243678737539152 0.39479489870928086
O -1.5953473609419442 10.554302637970611 -1.6583025781523073
H -2.1059767426339833 9.730871192309241 -1.6446773901230491
H -1.5121855523670344 10.762569809335778 -2.600995976466999
O 6.619927629233187 -2.9904293876501504 4.046519707662936
H 6.11995088847365 -2.233844413495438 4.3879428944601795
H 6.048837498180673 -3.7510821265248957 4.2315208356507705
O -1.4313957453254171 -1.6528592029395814 7.214913316099739
H -1.0617490409396466 -2.330339131489932 7.800873739036433
H -2.383616357777505 -1.6848218601800367 7.391594492413174
O 7.062951978848543 7.343500184505693 0.464900564230772
H 7.940740207925672 7.2458632196362265 0.8635510438300273
H 6.547261192795851 7.803551965357688 1.14414817476412
O 4.54970895137388 1.922594160319974 -7.441900180899345
H 4.372907367062871 2.3863187570117574 -6.609633363641706
H 3.727936975226167 2.0236997451188143 -7.9453189173809795
O -0.23736179030662918 -7.780519358063281 5.201446854733411
H -0.12380342059457261 -7.8180153651385975 6.163042353382271
H -0.4923592546189719 -6.861241556075265 5.031545235358094
O -1.8555657748307586 -2.790166632124726 -7.114422719862725
H -1.9669900134084735 -3.6370946997310645 -7.571877465447433
H -2.2886862059477404 -2.1498241586694533 -7.698657392865125
O -4.016828322885907 -6.170542721741806 7.949289122950886
H -3.810069728066285 -5.234573791842294 7.807231378948737
H -4.877886626652324 -6.155233363232098 8.39348070927026
O 0.11049187884617329 -10.987345166852776 0.777874805130712
H 0.06132068310565786 -11.647849431026536 1.4851821410305526
H 0.7857423703227431 -11.337253496678631 0.17740592269038746
C -12.827658262547502 -5.371646276963185 -12.633154783128575
O -11.740590993481344 -5.872747461418751 -12.633937574465229
O -13.914725531613659 -4.870545092507619 -12.63237199179192
O -4.332122271370677 -6.252319833062885 -17.898381066853332
H -3.6293349273386153 -5.592428114546264 -17.99636180884654
H -3.9021550390168036 -6.984640190068762 -17.43169378599308
O -5.319403069837088 9.365142719671766 -16.22697808088219
H -4.895439564343091 9.38256028711962 -17.098137613489993
H -6.252112401101131 9.546627925604694 -16.41692114524746
O 18.179628312505827 -0.27156455556197745 0.4760587442147557
H 17.99750006245964 -0.06711787065144303 -0.4534562962575359
H 18.544926361637284 -1.1687261943608283 0.45115345424423037
O 3.983862669296311 15.734718219616756 8.12010707635223
H 3.5636014162902314 16.60762437456006 8.10054484785297
H 3.905376953938922 15.416668923289054 7.20816048696758
O 0.556655423725287 9.73314164516579 13.322909089397644
H 0.12282087621838045 10.595748008229789 13.241268384531892
H 1.3922422678611444 9.93287693187838 13.771085824011253
O -10.71233279517105 6.858883399072752 10.95203281374763
H -10.224243518862405 6.298754791979832 10.329945875475612
H -10.019767003958016 7.357505334069737 11.411043418288882
O 0.9786726416471061 -13.310082165551314 13.886287388046117
H 0.6763113613575036 -13.409124998382822 14.801566323860957
H 0.810974174255036 -12.37738342414784 13.684019679009994
O -9.548134455815545 2.641140813079513 17.398591947888526
H -9.467833451393808 2.170472649065731 18.241794524362742
H -9.009910813734601 2.1175642261673726 16.786101284251473
O 4.1886743551821874 10.443823873499733 -16.678843331064673
H 5.107292418323266 10.749661005879073 -16.718490013509943
H 4.040347555917661 10.269828053996973 -15.737202975241123
O -6.360479130839369 4.533880441733938 2.220775731479979
H -6.279438900507727 4.522371293558751 3.1863156723814816
H -5.591079588361491 5.044674516869499 1.9273891245238386
O 1.608778296944644 -18.5419070763357 -18.457046509317873
H 0.9560610846123172 -19.247458274678355 -18.580030671478546
H 1.3379257857410407 -18.113873181095755 -17.630978808702228
O 12.281216988802187 -10.278443465671106 -3.05001869069747
H 11.703054776672994 -10.690545544703982 -3.7094636768962133
H 12.03692290472777 -9.341149863272397 -3.07764200854114
O -4.477758546416638 3.909043106177343 7.742915377557599
H -4.231245436752707 3.307553725991261 7.024299228847327
H -4.750364160297185 4.7193449863346455 7.286780543770101
O 6.836557325822198 -22.362126809064996 -3.7847844486427293
H 7.418529971827514 -22.673304687299623 -3.075246906084926
H 5.953128912813373 -22.37841589056125 -3.3869768956567166
O -0.9382070407821832 -7.27167838760378 -10.815285747150984
H -1.3274682623899525 -7.5675186060997754 -9.978672560921726
H -0.8352298406453444 -6.315063748737545 -10.7001941607565
O -2.120217160291083 -20.56884099786331 8.201348101448673
H -2.946062606930112 -20.625491354678303 7.6976245738680005
H -1.9219261558855507 -19.62052666369733 8.219856085865665
O 1.2087097175572792 -4.297575817226478 9.455007195335735
H 1.6197996134597172 -4.695529168034617 10.23705935789748
H 0.36947214326474676 -4.773356827296295 9.364041989611092
O -13.603561262822643 -8.15447544188841 5.52777556704152
H -13.517185304502329 -8.399503561324622 4.594251185244343
H -14.262789371357442 -8.775296396669152 5.872683652366808
O -10.455451000881238 18.064046011320826 -8.211939938429092
H -11.416109991720687 18.142196553003078 -8.31191069942502
H -10.121141740923346 18.93461540854906 -8.475204420682338
O -14.827610976924088 -2.196508887218178 1.4178409320805438
H -15.362950400987422 -2.633877734513298 2.0968752090940646
H -15.328323807222626 -1.394493941559102 1.2056602712890943