194

C -5.0710522388059704 1.0783507462686561 0.47044029850746183
C -3.8153522388059704 0.1782507462686569 0.19534029850746193
C -4.11845223880597 -1.3219492537313435 0.5608402985074619
C -2.96945223880597 -2.3874492537313436 0.7034402985074619
C -2.52015223880597 0.7359507462686565 0.7384402985074618
C -2.20305223880597 0.7852507462686571 2.097440298507462
C -1.5755522388059702 1.205650746268656 -0.18965970149253808
C -0.9533522388059701 1.2695507462686564 2.508640298507462
H -2.91125223880597 0.4298507462686567 2.840840298507462
C -0.32655223880597006 1.6562507462686575 0.21554029850746192
H -1.7850522388059702 1.178550746268657 -1.2573597014925382
C 0.004447761194029898 1.6956507462686563 1.569740298507462
H -0.7158522388059702 1.2676507462686573 3.5705402985074617
H 0.3943477611940298 1.9193507462686572 -0.5551597014925382
C -1.76045223880597 -2.1592492537313435 -0.1734597014925381
C -0.5287522388059701 -1.936549253731343 0.464840298507462
C -1.8068522388059702 -2.121249253731343 -1.5681597014925381
C 0.6114477611940299 -1.614449253731343 -0.2582597014925381
H -0.4544522388059702 -1.954049253731343 1.5506402985074619
C -0.6479522388059701 -1.8270492537313432 -2.2998597014925384
H -2.74345223880597 -2.290549253731343 -2.092259701492538
C 0.5698477611940298 -1.5506492537313434 -1.6506597014925382
H 1.5072477611940298 -1.351949253731343 0.2991402985074618
H -0.7173522388059701 -1.7640492537313435 -3.3840597014925375
C 1.7791477611940298 -1.082849253731343 -2.4255597014925376
H 1.4739477611940297 -0.9102492537313429 -3.464259701492538
H 2.1252477611940295 -0.1337492537313434 -2.0010597014925384
C 1.3965477611940298 2.0964507462686566 1.997440298507462
H 1.51704776119403 1.8448507462686567 3.057640298507462
H 2.1256477611940294 1.5207507462686571 1.4165402985074618
C 3.94864776119403 -1.4275492537313434 -3.522959701492538
H 4.81734776119403 -2.087049253731343 -3.615159701492538
H 3.4305477611940303 -1.3641492537313429 -4.484459701492538
H 4.26984776119403 -0.441449253731343 -3.176459701492538
C 2.60904776119403 -3.4296492537313434 -2.8992597014925376
H 1.9825477611940296 -3.869549253731343 -2.119359701492538
H 2.06294776119403 -3.373349253731343 -3.845759701492538
H 3.5215477611940305 -4.019849253731343 -3.0234597014925377
C 3.7281477611940304 -2.060049253731343 -1.156659701492538
H 3.9048477611940298 -1.032549253731343 -0.8295597014925382
H 3.12924776119403 -2.623249253731343 -0.4404597014925382
H 4.68244776119403 -2.5769492537313434 -1.3005597014925383
C 3.1110477611940297 3.755250746268656 2.588740298507462
H 3.40124776119403 4.809350746268656 2.534540298507462
H 2.9823477611940303 3.461750746268656 3.634840298507462
H 3.86514776119403 3.1392507462686563 2.091540298507462
C 1.99744776119403 3.9574507462686572 0.40494029850746194
H 2.67914776119403 3.230350746268657 -0.04295970149253803
H 1.03214776119403 3.981150746268657 -0.10175970149253821
H 2.4399477611940297 4.958250746268657 0.368240298507462
C 0.7418477611940297 4.4992507462686575 2.475440298507462
H -0.18475223880597014 4.424250746268656 1.901240298507462
H 0.57844776119403 4.189650746268656 3.511940298507462
H 1.1210477611940297 5.524350746268658 2.4432402985074617
N 3.00114776119403 -2.025349253731343 -2.490159701492538
N 1.7831477611940298 3.586450746268657 1.862540298507462
C -3.55075223880597 -3.8435492537313434 0.6444402985074619
H -2.62515223880597 -2.2736492537313433 1.7424402985074618
H -4.67195223880597 -1.3478492537313436 1.5102402985074619
H -4.83415223880597 -1.6757492537313432 -0.1945597014925382
H -3.7169522388059697 0.17335074626865676 -0.900559701492538
H -3.9132522388059705 -4.043149253731343 -0.34225970149253815
H -4.35435223880597 -3.9354492537313432 1.3449402985074619
H -2.78115223880597 -4.545049253731343 0.8904402985074619
H -5.24235223880597 1.138950746268657 1.5249402985074618
H -5.92805223880597 0.6501507462686567 -0.006059701492538094
H -4.89895223880597 2.059650746268657 0.08004029850746197
C 1.635635313115342 2.7741102257443577 -3.456484016394683
O 1.142130704581092 3.13490581701261 -4.513865329487007
O 2.698052778921041 2.1522779974852155 -3.34148283227353
O 1.1489987022174935 2.9749934632110886 -2.3377887414253364
O 8.25210715454942 4.7300555980633 -4.139457254968187
H 8.242137357425817 5.399900949347483 -4.839582361937139
H 9.194741405394252 4.569344332755103 -3.9826946872511466
O -9.999541698736342 0.5965608356549957 2.895383532667156
H -10.611551493388259 1.2389117587003418 3.284994440898579
H -10.274924142652887 0.5436928145822977 1.9678430072827349
O 2.5209824492665285 -3.325630807589444 2.428819748783325
H 2.6221326840252743 -3.2490078845169226 1.4681611650148385
H 2.2912942733784036 -2.4279507849637123 2.712326121085343
O 2.4372681750568357 7.889734825083798 -6.818798993666414
H 2.2232095937413865 7.711467940590022 -7.746897694537234
H 1.5831145954732806 7.827496413338814 -6.365466900286673
O -4.397351231139938 6.429757998201912 5.363005287883067
H -3.902786566022709 6.743607566698933 6.13493248475575
H -4.893091907120212 7.2090684158900356 5.0699551226188575
O 10.191936225921904 7.637461563796126 -3.155133644013939
H 9.89422629600924 7.4235912764095175 -2.258141082893967
H 9.477827896608213 7.310833846557813 -3.722870883092453
O 4.099894047926944 -0.7996944826366776 3.869766015345732
H 3.978981304761035 -0.4506235959083651 4.765587973928354
H 4.547978178396711 -0.08201466585500472 3.397412083526196
O -6.184833970272948 1.2300620944255107 -5.839935572189679
H -6.3129175003585685 1.2271880346378743 -4.879438978754209
H -6.967935353854596 0.7731147798161395 -6.181861469137821
O -1.7018659037777961 7.4481249373776075 1.0171162729748071
H -1.2967351906635125 7.969332248788657 1.7264676673649055
H -2.5888629823437874 7.827307371695801 0.9253622081061312
O -0.9011666387480437 2.9884058151848265 8.3329523093332
H -0.4726441098708083 2.7185423259924466 7.506810979810476
H -1.5974073123979644 3.598682650878594 8.046992430204842
O -0.060433063498929185 -2.5811287916175227 -9.59942464365601
H -0.01329728677660591 -3.450023340773259 -10.025767038803659
H 0.6513505741908658 -2.6039216561102863 -8.942304804703253
O 7.887256659487175 -7.313092731394051 -1.6317644558527702
H 8.01823342615024 -6.54997666849849 -1.0491270745895438
H 7.046676518527471 -7.126621811305018 -2.0763041806078384
O 5.664179129833588 -4.809576291464057 -2.7642410950787624
H 5.599504648491326 -4.932388039432134 -3.7232519620266484
H 5.620449711599417 -5.710230355383699 -2.4094567388482027
O -3.377112197000892 6.427850390543252 -2.048528915011583
H -4.2166230574241865 5.98870385325038 -2.2518493294195334
H -2.716197871040551 5.725947876444039 -2.145930448580573
O -1.0977116257134587 -5.985568775432837 -8.989807586260198
H -1.4548359189478677 -5.845234937085998 -9.879603073940748
H -0.15808778055510775 -5.765551743833308 -9.077337465249984
O 3.377770728872404 -8.169829380296566 -6.225701910895423
H 3.316749269306124 -8.361401107014462 -7.173617525227588
H 2.5126676076617254 -7.791971687857971 -6.007110744018718
O -2.1420070059250937 -2.7421016458192766 -7.6560796778687035
H -1.7781775308774828 -2.3537267099094574 -6.846289347509279
H -3.0299266265255898 -3.0320143703097893 -7.398181822446915
O -5.590367331667111 -6.3353266088227675 -2.329161796272597
H -5.548869384943531 -6.409336487942382 -1.3638805858937624
H -5.171288821699394 -7.150083668973502 -2.644607639037675
O 2.3781465945153655 3.0332907940499108 -7.050841832743908
H 2.4620685184225217 3.636323760755499 -6.297001193978672
H 2.9783664052641425 2.303832718897562 -6.834996889139168
O 7.271216519258466 -0.601550887663767 -3.9475551517690253
H 8.044159969153936 -1.1485487556617868 -4.153271248779717
H 7.580931312610215 0.3051469882705171 -4.09225364124055
C 8.20955122215208 -6.127902139443053 1.0257115092805327
O 8.075461976704567 -7.30577314823625 0.8600062945170472
O 8.34364046759959 -4.950031130649856 1.191416724044018
O -2.5509431776468245 3.96044869258461 13.990555381201506
H -2.182276792826891 3.758643816502401 13.117441845861887
H -3.475593673030933 3.678128215989018 13.925144723195656
O 2.245465684330744 9.703271901085284 7.704220688952233
H 1.6066814588187466 9.705608761810572 6.975580442178154
H 3.0732983743017748 9.99072355119251 7.290667148807839
O 6.915843963295555 -18.885148492697233 -15.305428454226139
H 6.9111229921897985 -18.842062648957324 -14.337395046021111
H 6.75317025219441 -17.970578688736996 -15.581220552917735
O -24.19007660927981 -0.694823400289561 -11.2929452415905
H -24.292618890091795 -0.880535504022216 -12.238441646698986
H -23.24006025190283 -0.5358397036500566 -11.187327775141966
O -1.8331597397192976 -2.5202645882941477 -21.088574550934148
H -1.410311281767946 -3.3358583870899263 -20.78039717688791
H -2.774826368636276 -2.6629366495229734 -20.910051198879437
O -3.5868540486834615 15.59479525239355 0.38303683810384437
H -3.5075976409003746 15.588825075891 -0.5827012918868125
H -2.998850451279356 16.312819238774438 0.6617037875641792
O 6.952534797687852 13.663671929887101 -1.7833958513649943
H 6.885939138524421 13.07941039738515 -2.553571699284844
H 6.105310124443445 14.133831132107076 -1.772322373420531
O -5.797554177579038 13.366669742846046 -15.111560156395644
H -5.486076199714369 13.374479771532322 -16.029104612897484
H -6.608543271679402 13.89648210590603 -15.135171456636545
O 2.566124092541439 1.3434349141535424 -12.571906296305642
H 2.7125561033799706 1.0034711185215537 -13.467422706407252
H 2.005701852950513 0.6716547324863487 -12.155252668947035
O -10.589438442403214 -7.307352770350334 -10.570770727853798
H -10.917320757102864 -7.926533935157151 -11.24015494469468
H -9.974110742054316 -7.837842786201406 -10.04264753335685
O -11.660870696845521 17.145717564862444 -2.413313474746855
H -11.63323749304377 17.24344102114443 -3.3769803720925893
H -11.049188462325858 16.415778244523736 -2.234440958980732
O -21.882040250781866 4.707284829232323 5.4861002071555856
H -22.255455936551005 5.14849262317693 6.263830086409369
H -20.940103446892266 4.932293305523739 5.519087892361752
O 7.137964815775279 -11.924654848826457 0.04643822159589556
H 6.982520450705698 -11.881187629884959 -0.9090276371063439
H 6.293378327457671 -11.649626107026876 0.43372984200030723
O -11.428359027056496 3.3971667152293064 2.7188600076034684
H -11.088479774512617 3.451913870494662 1.8130718427544428
H -11.019452206436858 4.151986038552877 3.168309610437964
O 10.92635634515336 -10.522431238264796 -2.698789112057571
H 11.523993549171177 -10.952964541939371 -3.3284225003882915
H 11.058954598962588 -11.015765249818633 -1.8753808291074057
O 15.02595088872932 5.257281633838884 -9.482087034437054
H 15.043479599368236 5.340712688404018 -8.516841283170836
H 15.86090837377699 4.813479128684667 -9.693858795731401
O -12.28590859633207 -0.8367885340935608 -4.933921333830497
H -11.85736011077179 -0.40890325139555106 -4.177463973978381
H -11.553316902783347 -1.0360710994819602 -5.536049072749436
O -5.594072522296065 14.183960315216419 2.079291676261184
H -6.389923967020124 14.333731132079642 1.5471671257593718
H -5.912521188287724 13.671537921780637 2.837563185770593
O 11.258057644509908 -17.511552685450752 3.3231820244386947
H 10.958551901914834 -16.822053568641913 3.934618558326232
H 11.498812731725138 -17.024430941255236 2.520865790892403
O 19.41931382177352 -5.222009123063245 -14.060241684507577
H 19.422374316333013 -5.152036949085352 -15.026710455416321
H 20.358641942079014 -5.218124707045509 -13.822314094649762