194

C -5.0710522388059704 1.0783507462686561 0.47044029850746183
C -3.8153522388059704 0.1782507462686569 0.19534029850746193
C -4.11845223880597 -1.3219492537313435 0.5608402985074619
C -2.96945223880597 -2.3874492537313436 0.7034402985074619
C -2.52015223880597 0.7359507462686565 0.7384402985074618
C -2.20305223880597 0.7852507462686571 2.097440298507462
C -1.5755522388059702 1.205650746268656 -0.18965970149253808
C -0.9533522388059701 1.2695507462686564 2.508640298507462
H -2.91125223880597 0.4298507462686567 2.840840298507462
C -0.32655223880597006 1.6562507462686575 0.21554029850746192
H -1.7850522388059702 1.178550746268657 -1.2573597014925382
C 0.004447761194029898 1.6956507462686563 1.569740298507462
H -0.7158522388059702 1.2676507462686573 3.5705402985074617
H 0.3943477611940298 1.9193507462686572 -0.5551597014925382
C -1.76045223880597 -2.1592492537313435 -0.1734597014925381
C -0.5287522388059701 -1.936549253731343 0.464840298507462
C -1.8068522388059702 -2.121249253731343 -1.5681597014925381
C 0.6114477611940299 -1.614449253731343 -0.2582597014925381
H -0.4544522388059702 -1.954049253731343 1.5506402985074619
C -0.6479522388059701 -1.8270492537313432 -2.2998597014925384
H -2.74345223880597 -2.290549253731343 -2.092259701492538
C 0.5698477611940298 -1.5506492537313434 -1.6506597014925382
H 1.5072477611940298 -1.351949253731343 0.2991402985074618
H -0.7173522388059701 -1.7640492537313435 -3.3840597014925375
C 1.7791477611940298 -1.082849253731343 -2.4255597014925376
H 1.4739477611940297 -0.9102492537313429 -3.464259701492538
H 2.1252477611940295 -0.1337492537313434 -2.0010597014925384
C 1.3965477611940298 2.0964507462686566 1.997440298507462
H 1.51704776119403 1.8448507462686567 3.057640298507462
H 2.1256477611940294 1.5207507462686571 1.4165402985074618
C 3.94864776119403 -1.4275492537313434 -3.522959701492538
H 4.81734776119403 -2.087049253731343 -3.615159701492538
H 3.4305477611940303 -1.3641492537313429 -4.484459701492538
H 4.26984776119403 -0.441449253731343 -3.176459701492538
C 2.60904776119403 -3.4296492537313434 -2.8992597014925376
H 1.9825477611940296 -3.869549253731343 -2.119359701492538
H 2.06294776119403 -3.373349253731343 -3.845759701492538
H 3.5215477611940305 -4.019849253731343 -3.0234597014925377
C 3.7281477611940304 -2.060049253731343 -1.156659701492538
H 3.9048477611940298 -1.032549253731343 -0.8295597014925382
H 3.12924776119403 -2.623249253731343 -0.4404597014925382
H 4.68244776119403 -2.5769492537313434 -1.3005597014925383
C 3.1110477611940297 3.755250746268656 2.588740298507462
H 3.40124776119403 4.809350746268656 2.534540298507462
H 2.9823477611940303 3.461750746268656 3.634840298507462
H 3.86514776119403 3.1392507462686563 2.091540298507462
C 1.99744776119403 3.9574507462686572 0.40494029850746194
H 2.67914776119403 3.230350746268657 -0.04295970149253803
H 1.03214776119403 3.981150746268657 -0.10175970149253821
H 2.4399477611940297 4.958250746268657 0.368240298507462
C 0.7418477611940297 4.4992507462686575 2.475440298507462
H -0.18475223880597014 4.424250746268656 1.901240298507462
H 0.57844776119403 4.189650746268656 3.511940298507462
H 1.1210477611940297 5.524350746268658 2.4432402985074617
N 3.00114776119403 -2.025349253731343 -2.490159701492538
N 1.7831477611940298 3.586450746268657 1.862540298507462
C -3.55075223880597 -3.8435492537313434 0.6444402985074619
H -2.62515223880597 -2.2736492537313433 1.7424402985074618
H -4.67195223880597 -1.3478492537313436 1.5102402985074619
H -4.83415223880597 -1.6757492537313432 -0.1945597014925382
H -3.7169522388059697 0.17335074626865676 -0.900559701492538
H -3.9132522388059705 -4.043149253731343 -0.34225970149253815
H -4.35435223880597 -3.9354492537313432 1.3449402985074619
H -2.78115223880597 -4.545049253731343 0.8904402985074619
H -5.24235223880597 1.138950746268657 1.5249402985074618
H -5.92805223880597 0.6501507462686567 -0.006059701492538094
H -4.89895223880597 2.059650746268657 0.08004029850746197
C -0.2863325482438712 1.8300829295726917 -3.215577291931272
O -0.5551372872522213 0.6554785378646412 -3.0160176921451116
O -0.9636641567406925 2.6106957963563073 -3.8941765171319602
O 0.7046360967633511 2.419927031545633 -2.7698044076277473
O 4.078193433863075 1.9772083444614448 -6.450427657287481
H 4.866743489150838 1.7187470192781742 -5.9500738718614326
H 3.492735081065594 2.363166341140484 -5.781669938648538
O 7.822992980377038 9.248701258562235 0.9678002594296169
H 7.767956637870919 9.80483046940698 1.7594180073033945
H 8.261433598098504 8.442278584884562 1.278306685145048
O 5.6877661825387555 0.9502419205871049 9.226491259507695
H 5.877813501922845 0.5888937907478016 8.34769839292504
H 4.735212803308667 1.1268283473888476 9.20596717885273
O 0.809622429563615 0.29469783488573587 -8.733988561417531
H 0.08606365378955338 -0.13140013694833375 -9.217590229424616
H 0.39087728895143004 1.0606490412007994 -8.313354277201206
O 2.876313475307417 7.332049432119364 -6.3376023384269065
H 3.0981949232959245 7.290430493321015 -7.279941897116779
H 2.0853670194390594 6.777850114950538 -6.25867981249869
O -1.763965205291012 -6.342617061645077 4.352122897371947
H -1.66407814427208 -5.526347608057143 4.864659833680206
H -0.8778624613223998 -6.734662623372564 4.361296171655165
O 0.8157720954781191 -9.179291999247475 7.503021997664341
H 0.6997071602322404 -8.243714865898873 7.727057073626982
H 1.7768471370134575 -9.30295616253257 7.504992671874867
O -4.637565389455986 -3.4639862611188796 -3.5339889536628033
H -4.374613223247195 -3.5178380500143924 -2.6029016859919047
H -3.872691205062079 -3.0594413540659597 -3.970191709872917
O 3.218389760916197 -1.839469250707228 -9.190476504105222
H 2.4479830909206584 -2.364834099455237 -9.453977349315192
H 3.9373341019623966 -2.487206260862018 -9.140299373324552
O 2.579693272824726 8.087978903942929 5.061375111320515
H 2.116931883695098 8.911834870595282 5.27603903433073
H 2.992004105152901 8.267905102529372 4.203127894659094
O -7.115977060166667 3.3752915741717233 2.6639848757988283
H -6.778241612171092 3.044168095237433 1.818254797247945
H -8.0170114580949 3.6664998712542323 2.4583232951367853
O -2.222472217723599 6.389696955534 -6.428998486638286
H -3.1218681488306235 6.73520134749036 -6.532347560881821
H -1.6670468448764098 7.183574439891448 -6.414060637802208
O -5.651009820661017 -1.5155996007050447 -5.974883318842294
H -5.765413683711568 -1.455758365258141 -5.014519773324608
H -5.442971073888135 -0.6079156414110791 -6.242822965370386
O 0.2833634927194064 6.908631241187181 -0.13162188621486748
H 0.6391715842894128 7.046464072665941 0.7590913501524041
H 0.8964107406657618 7.391690995280312 -0.7058938514551045
O -2.1282549084936404 -5.457681955259377 -4.497991055610644
H -1.8167742638496422 -5.388701199070321 -3.583010826213448
H -1.343722427527847 -5.25244625746836 -5.028414508110524
O 7.254509417142568 -2.4473107378524643 -1.061107009507646
H 7.739468963203531 -3.1842845539522995 -0.6602938485865106
H 7.842953575033757 -2.1350574866007372 -1.7648067497566071
O -7.312975408136439 -9.152000767713886 1.0268223366616342
H -7.603918266123014 -8.449006867687785 0.426723022537133
H -7.8982820783247405 -9.06211886657524 1.7938290445728402
O 3.69135359108318 -7.920913137683806 -1.2845914580817206
H 3.952253296156794 -7.937356833011006 -2.2176661097985537
H 3.3023210242253613 -7.041422426520463 -1.1657988017370826
O 6.683523508409109 1.400049239863196 -3.097109478499657
H 6.045248026822575 1.2555446121847456 -3.8117353799928733
H 6.459767267143176 2.27967039071567 -2.757754620323865
O 0.34800868195256385 -13.165592744439966 2.9582780680907033
H 1.103535679029271 -12.57337393087975 3.0902750015913916
H -0.24994895778317616 -12.94864217918224 3.6892644274819126
C -1.4227125918350239 16.793070815904194 10.09795332991102
O -2.185491072078221 17.62235520571719 9.693880752036245
O -0.6599341115918267 15.963786426091197 10.502025907785796
O 7.763645109364095 1.473536611160914 -7.722267539701437
H 7.380790878881555 1.9161901534584334 -6.949967185827971
H 7.556067453804474 0.5374362303992153 -7.58230490772356
O 2.724897465417077 -4.504967620980867 8.33999192766528
H 2.8214662015546765 -4.037410359609979 7.496764767618746
H 3.1553894267125404 -5.359083113788056 8.184668585869163
O 21.863069753121618 5.430463191670649 -2.705640154201353
H 22.38993971934502 5.514771119165504 -3.514508233033294
H 22.494851057950203 5.615047349341369 -1.994484042010737
O -4.530307625804265 7.262973317691409 11.46925351619393
H -4.150354622488758 6.745301922680802 10.743568047854305
H -4.146883319419929 8.14528068601204 11.353143855179809
O -5.5075135648758575 -10.068787339844935 1.1310882610703725
H -5.476704152954211 -10.111881505334162 2.0986424093937783
H -4.600559716072821 -9.840013162439234 0.8779893946294042
O -13.489060430296483 8.325899342736907 3.243584487219948
H -14.052501504298636 7.90763173103806 2.5753377378593196
H -12.600597114520209 7.99734063744397 3.03951572920918
O -0.7934531827511576 2.821014475437625 15.213522960164898
H -1.1869447951163825 3.6003429266911944 15.633973757482408
H -1.0598417525824093 2.8964737434900547 14.284919184042783
O 11.543949542351685 -9.551642675388957 -5.971555574720144
H 12.163050339616829 -10.273506639538862 -6.157550136434862
H 10.724481987946536 -10.004569264461542 -5.721971167177699
O 12.080026658299456 -8.729817014150758 1.7403799348215716
H 12.215155439116689 -7.9130506571998005 2.243967352901005
H 11.140873442086436 -8.931138051073974 1.8685322694429154
O -6.44510460538341 5.912475269597066 -17.38414280204941
H -6.81231144232645 5.307425352795591 -18.045989532026088
H -5.487029334099653 5.788708546518357 -17.459875998950842
O -9.604708624727257 4.777356283467471 -10.669700588967562
H -8.74126099770837 4.988692896535425 -11.055397864395347
H -9.818592924578908 5.555897383057133 -10.133893527772315
O -10.770440908654574 -4.891423851102818 -1.648993680608556
H -10.948527122454653 -5.053486374777729 -0.7103838597700605
H -11.09443038633931 -5.691024926415391 -2.0901635832634713
O 8.795792593867102 11.99554743454985 13.488971021089103
H 8.5228339607495 12.181218228434531 12.577934634436627
H 9.064066922317185 11.064664104783606 13.467827337446813
O 7.1341452881379155 -7.814426161004613 -9.64470491678849
H 6.481528120746598 -7.102035168659848 -9.719251974089065
H 7.679207710448088 -7.716676946302323 -10.439886651431868
O -10.089979951178009 3.449196777063821 18.07521187504855
H -10.490171510351143 3.1666324313875744 17.23916674264293
H -9.670748546322336 2.6454174345161423 18.41747747655761
O 12.283391038491711 3.313621834225656 -11.735457941010324
H 11.690049554604613 3.6372289944634213 -11.041057734903278
H 12.649297101761437 4.121476635370481 -12.125900404671368
O 1.9015975405041035 -13.461342583227088 9.133459410372588
H 2.7104025187489054 -13.817975887229634 9.530466400918918
H 1.2109070548666279 -13.67275162872302 9.779381087383326
O 8.731273675149051 -15.666270273297846 -9.85443659222981
H 8.859297821443324 -16.249908637795514 -9.091584421522988
H 8.530624542483313 -14.804719298344914 -9.45892200663512
O -7.283351386880397 10.198047616088239 -11.661858437310446
H -7.236170283798872 11.165315691093841 -11.695529960693998
H -6.426608259280842 9.934595994972836 -11.29369216924315
O 16.439723430411494 -4.143307343984448 5.308225309351669
H 17.139080956830536 -4.477613647267571 4.726756735199793
H 16.791543259170908 -3.302910903325197 5.638253451968263