194

C -5.0710522388059704 1.0783507462686561 0.47044029850746183
C -3.8153522388059704 0.1782507462686569 0.19534029850746193
C -4.11845223880597 -1.3219492537313435 0.5608402985074619
C -2.96945223880597 -2.3874492537313436 0.7034402985074619
C -2.52015223880597 0.7359507462686565 0.7384402985074618
C -2.20305223880597 0.7852507462686571 2.097440298507462
C -1.5755522388059702 1.205650746268656 -0.18965970149253808
C -0.9533522388059701 1.2695507462686564 2.508640298507462
H -2.91125223880597 0.4298507462686567 2.840840298507462
C -0.32655223880597006 1.6562507462686575 0.21554029850746192
H -1.7850522388059702 1.178550746268657 -1.2573597014925382
C 0.004447761194029898 1.6956507462686563 1.569740298507462
H -0.7158522388059702 1.2676507462686573 3.5705402985074617
H 0.3943477611940298 1.9193507462686572 -0.5551597014925382
C -1.76045223880597 -2.1592492537313435 -0.1734597014925381
C -0.5287522388059701 -1.936549253731343 0.464840298507462
C -1.8068522388059702 -2.121249253731343 -1.5681597014925381
C 0.6114477611940299 -1.614449253731343 -0.2582597014925381
H -0.4544522388059702 -1.954049253731343 1.5506402985074619
C -0.6479522388059701 -1.8270492537313432 -2.2998597014925384
H -2.74345223880597 -2.290549253731343 -2.092259701492538
C 0.5698477611940298 -1.5506492537313434 -1.6506597014925382
H 1.5072477611940298 -1.351949253731343 0.2991402985074618
H -0.7173522388059701 -1.7640492537313435 -3.3840597014925375
C 1.7791477611940298 -1.082849253731343 -2.4255597014925376
H 1.4739477611940297 -0.9102492537313429 -3.464259701492538
H 2.1252477611940295 -0.1337492537313434 -2.0010597014925384
C 1.3965477611940298 2.0964507462686566 1.997440298507462
H 1.51704776119403 1.8448507462686567 3.057640298507462
H 2.1256477611940294 1.5207507462686571 1.4165402985074618
C 3.94864776119403 -1.4275492537313434 -3.522959701492538
H 4.81734776119403 -2.087049253731343 -3.615159701492538
H 3.4305477611940303 -1.3641492537313429 -4.484459701492538
H 4.26984776119403 -0.441449253731343 -3.176459701492538
C 2.60904776119403 -3.4296492537313434 -2.8992597014925376
H 1.9825477611940296 -3.869549253731343 -2.119359701492538
H 2.06294776119403 -3.373349253731343 -3.845759701492538
H 3.5215477611940305 -4.019849253731343 -3.0234597014925377
C 3.7281477611940304 -2.060049253731343 -1.156659701492538
H 3.9048477611940298 -1.032549253731343 -0.8295597014925382
H 3.12924776119403 -2.623249253731343 -0.4404597014925382
H 4.68244776119403 -2.5769492537313434 -1.3005597014925383
C 3.1110477611940297 3.755250746268656 2.588740298507462
H 3.40124776119403 4.809350746268656 2.534540298507462
H 2.9823477611940303 3.461750746268656 3.634840298507462
H 3.86514776119403 3.1392507462686563 2.091540298507462
C 1.99744776119403 3.9574507462686572 0.40494029850746194
H 2.67914776119403 3.230350746268657 -0.04295970149253803
H 1.03214776119403 3.981150746268657 -0.10175970149253821
H 2.4399477611940297 4.958250746268657 0.368240298507462
C 0.7418477611940297 4.4992507462686575 2.475440298507462
H -0.18475223880597014 4.424250746268656 1.901240298507462
H 0.57844776119403 4.189650746268656 3.511940298507462
H 1.1210477611940297 5.524350746268658 2.4432402985074617
N 3.00114776119403 -2.025349253731343 -2.490159701492538
N 1.7831477611940298 3.586450746268657 1.862540298507462
C -3.55075223880597 -3.8435492537313434 0.6444402985074619
H -2.62515223880597 -2.2736492537313433 1.7424402985074618
H -4.67195223880597 -1.3478492537313436 1.5102402985074619
H -4.83415223880597 -1.6757492537313432 -0.1945597014925382
H -3.7169522388059697 0.17335074626865676 -0.900559701492538
H -3.9132522388059705 -4.043149253731343 -0.34225970149253815
H -4.35435223880597 -3.9354492537313432 1.3449402985074619
H -2.78115223880597 -4.545049253731343 0.8904402985074619
H -5.24235223880597 1.138950746268657 1.5249402985074618
H -5.92805223880597 0.6501507462686567 -0.006059701492538094
H -4.89895223880597 2.059650746268657 0.08004029850746197
C -1.158958717414605 2.20766496909663 -3.949451512961454
O -1.8467372610896096 2.5529066502059212 -3.0010083912693206
O -1.5835354224391347 1.95417509228857 -5.082636832318508
O 0.06808853934990933 2.058348186413201 -3.922844888302357
O -8.292818428834156 -1.245854916717927 -3.039396790404771
H -8.39468334951755 -1.1294126023167506 -2.082823697405044
H -8.258152343975281 -0.3404888769337533 -3.3830136422413464
O -4.635749951544521 -9.27686950814474 -2.5858794762299078
H -4.524810597945053 -9.301725884609366 -3.548190225038203
H -4.310672118489731 -8.39906439212304 -2.335390903551371
O -6.524438088490417 0.14020729173621715 -6.6853876248709225
H -6.575880847405847 0.11684798186958334 -7.652742441935336
H -7.29620463379588 -0.3701809802312299 -6.397564492226322
O -2.2459192067854925 8.458239790601008 -6.392432873687214
H -2.720776172587818 7.630826693532007 -6.222533533701168
H -1.6597127485818277 8.243736119137065 -7.133588800323978
O -9.140614069692052 0.05339820007772378 0.3479959930141858
H -8.582345507380424 0.05453278767000436 -0.4440281745119721
H -8.579401914440975 0.4511270838960928 1.0305021073274816
O -7.735771691858913 -1.6144401613067498 4.491761805087014
H -7.830811438601209 -2.2675859567324994 5.20122313127529
H -8.62300201458002 -1.2352525483127055 4.4023132003126495
O -5.383705552584738 7.776969505540383 -5.609610026517677
H -5.95612253067269 8.53257488112408 -5.408695426536296
H -4.906284518513922 8.050566885366347 -6.407216178875544
O 7.035439585177063 6.071539124792781 4.067661160430961
H 6.816471703502419 6.059934852309648 5.011528611164939
H 6.355933564807921 5.51175278459868 3.6628491473752915
O 8.99226940393666 1.5046791193005793 -2.47539960375624
H 8.443082355867768 0.8392328267701876 -2.91646895758955
H 9.339382170842926 2.041642607702016 -3.2035100922636075
O 6.6005277539829335 2.694481217105654 2.6686842868494125
H 5.995389332496503 2.55702465681069 3.4129157977200486
H 6.076816853756013 3.2039751738455293 2.0322058933991283
O 2.001485343552159 2.585274600157013 -5.980546503286579
H 1.726464227433606 2.620585608003959 -5.052061783264898
H 1.215430073455969 2.873167750909054 -6.4686003839227935
O -3.3641648722456967 -6.051539802800347 -6.749002806152106
H -3.939888792776258 -6.789134995502195 -6.49708485138896
H -2.494027436721416 -6.462308084341209 -6.863423986355755
O 9.66609652939785 -2.992025966620902 -3.3499676589593435
H 9.951494184564392 -3.8027235904362917 -2.902435651092287
H 10.039535634422672 -2.2812915995536613 -2.8074164276384757
O 5.470119211505644 -4.610677396709052 -5.602695295305425
H 5.638363396580958 -3.9882880694449057 -6.326085077093935
H 6.193465879020933 -5.251667965213907 -5.672427884403695
O -5.859592397070648 -0.6596896942045776 7.509953701423861
H -5.9988216658962354 -0.2859544426558642 6.62683166605609
H -6.073632744489953 -1.598698578733016 7.403131471746325
O 2.5772448110136974 0.07426392678785432 3.0206057124234973
H 2.5330253480643328 0.0726824847948565 3.988598220161906
H 3.4915283338934087 0.33143878966850127 2.8284894091252513
O -2.87219550809392 7.435396098853977 6.133043504906567
H -3.493931818270683 6.699753693361833 6.027017240474041
H -2.0567721709811586 7.010470623464222 6.43879678118775
O 1.8298866727948013 -8.685798061673935 -5.949499554292535
H 1.469210084521178 -8.557460674132333 -5.059325823759951
H 1.0784546052357267 -8.506830135866952 -6.5345485041046345
O -0.8550507799283302 0.3762887752780194 -7.450186109844605
H -1.0092488348110922 1.3229589496987755 -7.312324231021817
H -1.0952636692030344 -0.02594208645333096 -6.601970308295759
O 1.7326795280445157 -5.0596587302791605 0.8685773825724561
H 1.9974174431072425 -5.320050556545853 1.7636065944095547
H 0.8465701702122435 -4.685550032594721 0.9861138985108215
C 1.6685707013065034 -14.674138989362977 -10.386795306329994
O 1.3084509035811607 -14.04942276028558 -11.342233227763707
O 2.028690499031846 -15.298855218440373 -9.43135738489628
O 4.921620771699059 -10.845297339599792 -4.32471340999159
H 4.7459209035577805 -11.052397761161902 -3.394548731763087
H 4.804811173544376 -11.693012711424412 -4.779351849249855
O 17.270977162763558 10.716956847316306 3.0737222699366207
H 17.24344384224098 9.783714281696964 2.8143623137420795
H 17.984782209284244 11.08887414098367 2.5341652048056558
O -10.016355152095088 -2.2571629389218506 -1.173139555878575
H -10.830602019539574 -1.7603971117343198 -1.0022796463165935
H -10.221972178441977 -3.154633884429356 -0.8710973655373477
O 12.691551291594928 -7.598586362748626 3.435250003125939
H 12.40313136944675 -8.254870162014049 2.783273868417173
H 11.91481943796358 -7.032053637337277 3.556453315343044
O 3.7984442832164738 -12.289016759378502 -7.072035510727597
H 3.334245885374875 -11.59095157656262 -6.586039415186162
H 4.0650657669532855 -12.916201725526545 -6.383185783321206
O -7.839012773406946 14.076723825119887 6.544657101252591
H -7.998808990130668 13.831490891492656 7.468395881582492
H -7.503035168925113 13.26236158761448 6.141054400924862
O 8.505775512575962 9.006484850644629 -10.290171283709666
H 8.538274952506164 9.047581056891264 -9.322585501912332
H 8.669623882509786 8.072665429564916 -10.49041349899999
O -1.8694598349539442 -13.118744453788832 -13.341630161452903
H -1.7774137005791477 -13.08905613886117 -12.377465512648865
H -1.8189670571947092 -12.189107714450884 -13.610308326861377
O 8.065253211442787 -6.42717729129321 8.273777906831587
H 8.321630350889402 -6.567612538883488 7.349918577440239
H 8.902236955217573 -6.233835917435096 8.72215193608774
O -0.6557629798326534 -6.8587630127197725 16.70376752910171
H -0.8896348707400348 -6.159475144938659 16.075064281521783
H 0.18162075233604025 -7.208501212254775 16.364012291930525
O 18.868209638713193 -2.701239846736439 -2.703249859573641
H 19.171508814573517 -3.2862945264228243 -3.413663815376531
H 18.484036217723766 -3.30550076688406 -2.0503781514351838
O 3.414993616637477 -0.7903527561544768 6.370083144601966
H 3.3784316591546903 -1.6847197758527328 6.741214137973696
H 3.4191252515174995 -0.21376619439114197 7.148859627738914
O 3.8240725230014716 -11.91870207159679 11.78798774532719
H 3.92713186990638 -11.012883960585045 12.116377266595219
H 4.651703572513579 -12.354816492422426 12.04056051134009
O 5.20541776824772 -7.302090621628451 -12.673715709879557
H 5.326088943085874 -7.3499419648980675 -13.633984460496006
H 4.254730466973967 -7.14961766567734 -12.564593772578398
O -16.264078091259652 4.7320751507452545 15.575740113792934
H -16.53549782910933 4.707571951790362 14.645848573855837
H -16.139342010286736 3.7995794687760256 15.80780617661183
O 10.265121897331973 -17.9272518522923 -0.1886043673294857
H 10.600435227462071 -17.154758613613566 0.2907561689401441
H 10.955266110498671 -18.114673098132588 -0.8424668803551163
O 6.5573309330432545 16.943435784377762 8.512901562052676
H 7.202529057808277 17.164212407627147 9.201337775021097
H 6.989686332712417 16.24179318824691 8.00326598639918
O -1.1158728382139218 6.912578400615523 15.10174689059485
H -1.1252341436490634 7.76167294539004 15.56856396064982
H -1.3764668284723576 7.140210813646027 14.196630212437224
O 0.6559440127416263 -4.563715537141962 9.92910516771318
H 0.3033728352753311 -4.404222408089545 9.04072300698217
H -0.13366336612640106 -4.616508365418563 10.488296591842447
O -11.757198876894286 -11.117960539883754 4.563154554259006
H -11.74542895449601 -11.241717078595407 5.524150467337126
H -11.161987871716708 -11.806771051569044 4.231151719019084