194

C -5.0710522388059704 1.0783507462686561 0.47044029850746183
C -3.8153522388059704 0.1782507462686569 0.19534029850746193
C -4.11845223880597 -1.3219492537313435 0.5608402985074619
C -2.96945223880597 -2.3874492537313436 0.7034402985074619
C -2.52015223880597 0.7359507462686565 0.7384402985074618
C -2.20305223880597 0.7852507462686571 2.097440298507462
C -1.5755522388059702 1.205650746268656 -0.18965970149253808
C -0.9533522388059701 1.2695507462686564 2.508640298507462
H -2.91125223880597 0.4298507462686567 2.840840298507462
C -0.32655223880597006 1.6562507462686575 0.21554029850746192
H -1.7850522388059702 1.178550746268657 -1.2573597014925382
C 0.004447761194029898 1.6956507462686563 1.569740298507462
H -0.7158522388059702 1.2676507462686573 3.5705402985074617
H 0.3943477611940298 1.9193507462686572 -0.5551597014925382
C -1.76045223880597 -2.1592492537313435 -0.1734597014925381
C -0.5287522388059701 -1.936549253731343 0.464840298507462
C -1.8068522388059702 -2.121249253731343 -1.5681597014925381
C 0.6114477611940299 -1.614449253731343 -0.2582597014925381
H -0.4544522388059702 -1.954049253731343 1.5506402985074619
C -0.6479522388059701 -1.8270492537313432 -2.2998597014925384
H -2.74345223880597 -2.290549253731343 -2.092259701492538
C 0.5698477611940298 -1.5506492537313434 -1.6506597014925382
H 1.5072477611940298 -1.351949253731343 0.2991402985074618
H -0.7173522388059701 -1.7640492537313435 -3.3840597014925375
C 1.7791477611940298 -1.082849253731343 -2.4255597014925376
H 1.4739477611940297 -0.9102492537313429 -3.464259701492538
H 2.1252477611940295 -0.1337492537313434 -2.0010597014925384
C 1.3965477611940298 2.0964507462686566 1.997440298507462
H 1.51704776119403 1.8448507462686567 3.057640298507462
H 2.1256477611940294 1.5207507462686571 1.4165402985074618
C 3.94864776119403 -1.4275492537313434 -3.522959701492538
H 4.81734776119403 -2.087049253731343 -3.615159701492538
H 3.4305477611940303 -1.3641492537313429 -4.484459701492538
H 4.26984776119403 -0.441449253731343 -3.176459701492538
C 2.60904776119403 -3.4296492537313434 -2.8992597014925376
H 1.9825477611940296 -3.869549253731343 -2.119359701492538
H 2.06294776119403 -3.373349253731343 -3.845759701492538
H 3.5215477611940305 -4.019849253731343 -3.0234597014925377
C 3.7281477611940304 -2.060049253731343 -1.156659701492538
H 3.9048477611940298 -1.032549253731343 -0.8295597014925382
H 3.12924776119403 -2.623249253731343 -0.4404597014925382
H 4.68244776119403 -2.5769492537313434 -1.3005597014925383
C 3.1110477611940297 3.755250746268656 2.588740298507462
H 3.40124776119403 4.809350746268656 2.534540298507462
H 2.9823477611940303 3.461750746268656 3.634840298507462
H 3.86514776119403 3.1392507462686563 2.091540298507462
C 1.99744776119403 3.9574507462686572 0.40494029850746194
H 2.67914776119403 3.230350746268657 -0.04295970149253803
H 1.03214776119403 3.981150746268657 -0.10175970149253821
H 2.4399477611940297 4.958250746268657 0.368240298507462
C 0.7418477611940297 4.4992507462686575 2.475440298507462
H -0.18475223880597014 4.424250746268656 1.901240298507462
H 0.57844776119403 4.189650746268656 3.511940298507462
H 1.1210477611940297 5.524350746268658 2.4432402985074617
N 3.00114776119403 -2.025349253731343 -2.490159701492538
N 1.7831477611940298 3.586450746268657 1.862540298507462
C -3.55075223880597 -3.8435492537313434 0.6444402985074619
H -2.62515223880597 -2.2736492537313433 1.7424402985074618
H -4.67195223880597 -1.3478492537313436 1.5102402985074619
H -4.83415223880597 -1.6757492537313432 -0.1945597014925382
H -3.7169522388059697 0.17335074626865676 -0.900559701492538
H -3.9132522388059705 -4.043149253731343 -0.34225970149253815
H -4.35435223880597 -3.9354492537313432 1.3449402985074619
H -2.78115223880597 -4.545049253731343 0.8904402985074619
H -5.24235223880597 1.138950746268657 1.5249402985074618
H -5.92805223880597 0.6501507462686567 -0.006059701492538094
H -4.89895223880597 2.059650746268657 0.08004029850746197
C 2.422845626823937 -3.2929218118043186 2.209428022725506
O 1.6313129092268022 -2.365125942433051 2.276108457268988
O 2.289969179765593 -4.292895047207659 1.494565209037364
O 3.4792435591810515 -3.3754389900116255 2.84650157280612
O 1.3661233779320883 -9.778268941421427 3.0197508024357926
H 1.3639006594881895 -9.514314373102511 3.9521082458480796
H 1.184006883084245 -10.729656133849412 3.0454010790098835
O -6.585884000799096 1.6121930498110135 -11.080295888714824
H -7.004040905739401 1.8515633359540957 -10.23957356483938
H -5.957586939104942 2.331849486797975 -11.242466660648986
O -0.782422731398027 -6.948964946838551 1.1847752193187802
H -1.2985725930739944 -7.55023389645359 0.6270724961582177
H -0.6163891992431436 -7.4614049880750235 1.9902564510292
O -1.9533584221625937 7.3173473903382975 -2.878636748008833
H -1.8086344585960157 7.237792792196464 -3.8334631181851453
H -1.317626258960459 7.993949276476412 -2.6011183726808538
O -7.512688597735508 -1.2354509638007263 -3.5678484318717736
H -7.413685369370402 -1.3534011133349881 -4.524537242247506
H -7.772846460512954 -2.1129161960194254 -3.249517476759871
O 6.354635659614267 1.2578160166109338 1.5130309487560152
H 6.372563319894043 0.2899958807235349 1.557417213160567
H 6.626151259185493 1.5378704053521355 2.400054490064964
O 5.169346376245643 -7.657005516351995 -1.5978327138957982
H 4.471609993023414 -7.379678546706091 -2.21038560821186
H 5.816347223503792 -8.101643918111735 -2.165854315270057
O 9.343649598897672 0.03514061410389635 4.179856711288581
H 9.187104339832235 0.2106393627959755 3.239824196972373
H 8.713370320245268 -0.6688254091348838 4.394663166793956
O -4.167772276060785 2.6904776705596776 4.929158377359837
H -3.7115141550374915 1.971517750418987 4.46667322394236
H -4.721071910719295 3.095310796716199 4.244372572488638
O -8.28046191698685 0.681149591006605 5.045303805782804
H -7.82022961857065 0.4360177769682573 4.2285639560504595
H -8.10056915661838 1.6285837800358416 5.140008591963464
O -3.542656132194649 6.087531571422921 -4.599292523051483
H -3.4487973482703986 5.391280377670225 -5.26666959845804
H -3.76395885812381 5.605903020416452 -3.788107595521558
O -4.114547506700859 -6.055852329884908 -6.08810174496455
H -3.8177220091936537 -6.160059221587577 -5.171585021357571
H -3.2931904664138782 -5.934990423032193 -6.587828626513796
O -2.7730320433936053 1.2033287067874165 -10.789859350012154
H -2.341072754335895 1.6224934541523268 -11.549253479607103
H -3.234972499916857 1.933375488722187 -10.350991881277258
O 1.8739036620788436 4.4182573655332575 8.026444526301981
H 2.236423552241728 5.301809619466068 7.86248690767283
H 1.488825135147838 4.1615784398519375 7.17509712276584
O 1.9732866578988024 8.319170210160635 -2.47697630121462
H 2.3742663006041225 7.464468845035945 -2.2586456815345035
H 2.4425845733582108 8.949514205260883 -1.9100654981013692
O 5.646041390690036 3.6258396282137637 -4.678623204362658
H 4.757672549612386 3.7540729325350086 -4.313487094445809
H 5.766207454195178 2.6643599346023916 -4.6697428747145455
O 4.363803293009714 0.30703365039453967 7.259060267974596
H 4.5933457480446185 0.015248574790522884 8.15412400195744
H 4.225776787001028 -0.5190709587122484 6.771759741860009
O 7.789153923407866 -7.055181826425908 1.7560586655463826
H 8.23951686541723 -6.941164101501014 2.606435367818748
H 7.338045851687759 -6.209296734912354 1.6148430011034025
O -7.487398611551112 -6.886693679583564 4.102720684127881
H -7.990070280524256 -6.4043607348312035 4.776251292577321
H -6.658012966503769 -6.390926993887634 4.029941638768134
O -7.345552837731937 -2.459059817125148 3.169575650966519
H -6.877279713559931 -2.4304717902487614 2.321713419942219
H -6.721109881743059 -2.8971205611678594 3.7671839872074195
C -3.051110873890471 15.176042684095242 -6.113791858228948
O -3.183249988658629 14.940037631096239 -7.279836079777696
O -2.918971759122313 15.412047737094245 -4.947747636680201
O 5.2821254308149275 13.39813414547333 -2.098819629303816
H 6.250674832553665 13.398484679517066 -2.128472460828288
H 5.0724870643583 12.885528208421055 -1.303678853775258
O -15.097424494821443 11.969626415497391 0.631048265378369
H -15.295667755448857 12.829318163237868 0.2303026286176744
H -15.873424116371202 11.783018999869672 1.1805609623084548
O 11.747570344461664 10.952462357266217 7.827012891129188
H 11.469834130909677 11.130573261728168 6.915911108509075
H 12.709664546203568 11.065794520046898 7.804820276275033
O -14.49563279689617 -7.16989173225393 -13.658818903866319
H -14.243008780895847 -6.330513347542799 -14.07184722095802
H -14.219330490810577 -7.068944034877037 -12.735548335535407
O -1.4735781117405977 6.501760981353022 2.9005051008285068
H -1.9222699731061783 6.495355341885533 2.0416675502828263
H -1.9936689880187206 7.123318815285427 3.431667301845774
O -0.8526284968268216 11.205521329465423 -0.18973981642957902
H -0.9007932004290451 11.20873898433684 0.7780603514377549
H -1.7698663898200016 11.343294210510894 -0.47019520540590665
O -2.379752010035501 -0.8085416157209344 -12.709907643633391
H -2.9929771960254414 -1.1396808413176043 -13.383160227318623
H -2.0719289087231694 -1.6093860892578309 -12.259513358807455
O -14.047625833659712 10.559075479145735 -12.90156676324665
H -13.545039266676092 10.777518499454121 -12.102406737678443
H -14.316664013534503 11.421534151468038 -13.251917217229106
O 8.876629698917894 -13.465740346705173 0.4141983261470952
H 9.26022416005286 -12.797411216342434 1.001700513202736
H 8.99528372128055 -13.093643459350918 -0.4726089097832593
O -11.398778356765916 1.063196551882779 4.681560624624433
H -11.79309856920986 1.1707931054168679 3.8029811412390373
H -11.032606369299081 0.16618906785068788 4.665510905467839
O -8.710735572120875 11.230511901950354 10.677268363024812
H -7.880133754871293 10.975165032918621 10.248472427226226
H -8.605027258486336 10.927306742923196 11.591519055268387
O -14.669087482126203 -17.80945226204145 11.165264023648202
H -15.190292557991803 -17.77599292974361 11.981470553194567
H -15.027300849302602 -18.574149957791455 10.68999298309263
O 9.668523801008764 -3.746122543448 7.6012874928380025
H 9.028021408514476 -3.7072967408208086 8.327384317758376
H 9.148266205964738 -3.5135832938678964 6.817565937370931
O 11.316031109017674 -3.5663256069518816 13.674491815844124
H 11.835109237770837 -4.384124359859525 13.647464923813828
H 11.828255857461807 -2.9460173711824504 13.134301623395242
O 2.3142787299330667 -17.499276477194307 -3.6461909190557407
H 3.2132560415377 -17.648527412025796 -3.9756318220596567
H 1.7511826956004786 -17.673877002518857 -4.415215923184543
O -0.3003203320510137 -5.079964256216691 10.359649720768974
H -0.01772488016200846 -5.040639281002853 9.433603980108135
H 0.4734232186892584 -4.77003826503924 10.853844765240797
O 2.926528260772403 -2.0684031288047064 20.155980559599737
H 2.768300316557962 -1.361764032724898 19.51209201143229
H 3.866557391156015 -2.27730260795898 20.0479611819895
O 4.187066157189144 -19.586525727024632 2.006185042122112
H 4.729910058437087 -19.896603715030547 2.7465494774727834
H 4.618293122726191 -18.764598635059944 1.7279026244450728
O -13.173932024274912 2.115311181319872 -0.5842018280909494
H -12.989797867314529 2.079208368335868 0.366460339051055
H -13.184960334183469 3.063290856229105 -0.7846384929992104
O -9.904361702362001 12.771231385051912 -3.5444425506550825
H -10.80676317861361 12.99760165848678 -3.273526637752307
H -9.805878898112084 11.844460797425642 -3.2791891633479144