194

C -5.0710522388059704 1.0783507462686561 0.47044029850746183
C -3.8153522388059704 0.1782507462686569 0.19534029850746193
C -4.11845223880597 -1.3219492537313435 0.5608402985074619
C -2.96945223880597 -2.3874492537313436 0.7034402985074619
C -2.52015223880597 0.7359507462686565 0.7384402985074618
C -2.20305223880597 0.7852507462686571 2.097440298507462
C -1.5755522388059702 1.205650746268656 -0.18965970149253808
C -0.9533522388059701 1.2695507462686564 2.508640298507462
H -2.91125223880597 0.4298507462686567 2.840840298507462
C -0.32655223880597006 1.6562507462686575 0.21554029850746192
H -1.7850522388059702 1.178550746268657 -1.2573597014925382
C 0.004447761194029898 1.6956507462686563 1.569740298507462
H -0.7158522388059702 1.2676507462686573 3.5705402985074617
H 0.3943477611940298 1.9193507462686572 -0.5551597014925382
C -1.76045223880597 -2.1592492537313435 -0.1734597014925381
C -0.5287522388059701 -1.936549253731343 0.464840298507462
C -1.8068522388059702 -2.121249253731343 -1.5681597014925381
C 0.6114477611940299 -1.614449253731343 -0.2582597014925381
H -0.4544522388059702 -1.954049253731343 1.5506402985074619
C -0.6479522388059701 -1.8270492537313432 -2.2998597014925384
H -2.74345223880597 -2.290549253731343 -2.092259701492538
C 0.5698477611940298 -1.5506492537313434 -1.6506597014925382
H 1.5072477611940298 -1.351949253731343 0.2991402985074618
H -0.7173522388059701 -1.7640492537313435 -3.3840597014925375
C 1.7791477611940298 -1.082849253731343 -2.4255597014925376
H 1.4739477611940297 -0.9102492537313429 -3.464259701492538
H 2.1252477611940295 -0.1337492537313434 -2.0010597014925384
C 1.3965477611940298 2.0964507462686566 1.997440298507462
H 1.51704776119403 1.8448507462686567 3.057640298507462
H 2.1256477611940294 1.5207507462686571 1.4165402985074618
C 3.94864776119403 -1.4275492537313434 -3.522959701492538
H 4.81734776119403 -2.087049253731343 -3.615159701492538
H 3.4305477611940303 -1.3641492537313429 -4.484459701492538
H 4.26984776119403 -0.441449253731343 -3.176459701492538
C 2.60904776119403 -3.4296492537313434 -2.8992597014925376
H 1.9825477611940296 -3.869549253731343 -2.119359701492538
H 2.06294776119403 -3.373349253731343 -3.845759701492538
H 3.5215477611940305 -4.019849253731343 -3.0234597014925377
C 3.7281477611940304 -2.060049253731343 -1.156659701492538
H 3.9048477611940298 -1.032549253731343 -0.8295597014925382
H 3.12924776119403 -2.623249253731343 -0.4404597014925382
H 4.68244776119403 -2.5769492537313434 -1.3005597014925383
C 3.1110477611940297 3.755250746268656 2.588740298507462
H 3.40124776119403 4.809350746268656 2.534540298507462
H 2.9823477611940303 3.461750746268656 3.634840298507462
H 3.86514776119403 3.1392507462686563 2.091540298507462
C 1.99744776119403 3.9574507462686572 0.40494029850746194
H 2.67914776119403 3.230350746268657 -0.04295970149253803
H 1.03214776119403 3.981150746268657 -0.10175970149253821
H 2.4399477611940297 4.958250746268657 0.368240298507462
C 0.7418477611940297 4.4992507462686575 2.475440298507462
H -0.18475223880597014 4.424250746268656 1.901240298507462
H 0.57844776119403 4.189650746268656 3.511940298507462
H 1.1210477611940297 5.524350746268658 2.4432402985074617
N 3.00114776119403 -2.025349253731343 -2.490159701492538
N 1.7831477611940298 3.586450746268657 1.862540298507462
C -3.55075223880597 -3.8435492537313434 0.6444402985074619
H -2.62515223880597 -2.2736492537313433 1.7424402985074618
H -4.67195223880597 -1.3478492537313436 1.5102402985074619
H -4.83415223880597 -1.6757492537313432 -0.1945597014925382
H -3.7169522388059697 0.17335074626865676 -0.900559701492538
H -3.9132522388059705 -4.043149253731343 -0.34225970149253815
H -4.35435223880597 -3.9354492537313432 1.3449402985074619
H -2.78115223880597 -4.545049253731343 0.8904402985074619
H -5.24235223880597 1.138950746268657 1.5249402985074618
H -5.92805223880597 0.6501507462686567 -0.006059701492538094
H -4.89895223880597 2.059650746268657 0.08004029850746197
C 1.2462771910702697 -1.4305047765941166 4.879605150505588
O 1.0227518407245972 -2.314841278983882 5.691861801382563
O 2.346710308451218 -1.1948242709716306 4.36761577801747
O 0.40662649732245937 -0.6343902923748392 4.443902471026686
O 2.692878799305612 2.3136220220287256 7.811037173645925
H 2.283757956180909 1.864528215444988 8.565955874903922
H 2.298461388048913 3.1986336309080032 7.823337667395142
O -0.7033677632665434 8.131648352274599 -6.468856185436366
H -1.1908781528271408 7.294342140300245 -6.483664438528326
H 0.14900690122338123 7.899198285052757 -6.07087836961713
O 7.090704032653325 3.0557863264879477 3.523916060030507
H 7.658340833678576 3.7616862059760336 3.868097958393168
H 6.612865686928018 3.4752599462921916 2.792701767266186
O -6.715802500200173 1.721738656206004 6.1335925520591505
H -6.524272155430596 1.0965665971423673 5.418439854729006
H -7.679334970597997 1.6812468006751824 6.228078172259979
O 2.3552823622539614 0.2135949558472685 -6.2812902341427
H 2.6967793817840753 1.08813607204787 -6.041446579595291
H 1.663728214710162 0.04404893495047468 -5.624046784488744
O -7.049549762778502 -5.174487451063422 -1.5754235126491727
H -7.925015143760334 -5.2443251708236405 -1.1659721522887132
H -7.14646633448449 -5.645199060202704 -2.4168506951493964
O -3.3569524167049902 -7.907304270433013 3.1702830257588683
H -3.980440839208013 -7.794481493705554 3.903427325986455
H -2.4991285961712033 -7.671115193461988 3.5540993322707104
O 6.416754637894901 8.971891397264436 -4.230856826860385
H 5.929900123795759 8.248946529348093 -4.654284219638309
H 7.3431533803353775 8.789243528564944 -4.448542541513955
O -8.81837954698942 -1.2134357321755087 -5.16644888091387
H -8.845989117339053 -0.9502828002056596 -6.098626762501274
H -9.309684269392088 -0.5133555301840418 -4.710960873580613
O 8.070759675003362 -3.8239716752771993 0.8775441365890186
H 8.964693911874855 -3.482563223255338 0.724936122589036
H 8.093655950110069 -4.138712410967673 1.7937187783376631
O -3.98900095902974 3.6665500331057785 6.9772186688944755
H -4.071009112145893 2.813140069355641 7.4288085862912965
H -3.7602035359596737 3.4282832293618672 6.066261692012386
O 5.954941995314364 -6.854535866885806 4.746597591818998
H 5.708083272785041 -7.1659983542961605 3.862844658614617
H 5.2282103512958145 -6.265164251771576 4.9985185341396825
O -4.268837842140185 -6.0367831689826765 -0.21290983579248413
H -3.673200907511176 -6.291000218211218 -0.9337133394516246
H -4.961178976194864 -6.714489161244123 -0.23135669050558616
O 1.3955125358943687 -3.214578759243749 -7.569459666719395
H 1.5023801729104866 -4.176583434314307 -7.5237030256606054
H 0.6852508688708199 -3.088493073652211 -8.216447076601412
O -2.0504746786735337 7.004980052705793 -1.9175921194622512
H -2.276599650601422 6.343321749089155 -2.5884446690033305
H -1.75019606705315 7.768256646345099 -2.4335412848901172
O -9.61361364666031 -2.8605803257162234 -2.0779647902494345
H -9.138147206391913 -2.0495862251275705 -2.312885180783973
H -9.019707192532351 -3.3085726251801875 -1.4570461420626186
O -6.7672574390613685 -0.6430606861955197 2.064844915237643
H -6.341784364878828 -0.5843572971951163 2.9334610169566515
H -6.957103729786688 -1.5875419312935861 1.9605592122106097
O -0.7485762025455207 7.399497473036622 4.858700337074202
H -0.6023323532643525 6.545647012375293 5.29288864216298
H -0.03533035561587905 7.454932457305361 4.205118461058088
O 3.2222564352019463 0.6566443979971461 -8.645889953248869
H 3.6214655498711648 1.4846783784427384 -8.952417548894754
H 3.8384055994881607 0.33575961963707457 -7.9703493470184155
O -0.6677249457744239 9.667021984082009 -4.096226821443133
H -0.5802682671028387 9.41464139448206 -3.164764141434472
H -1.3480706952310648 9.067742375135564 -4.438214475894688
C 2.3843248095745824 7.364841796467193 -9.647491928758326
O 2.568998159612224 7.287905016801236 -8.46732467661967
O 2.1996514595369407 7.4417785761331485 -10.827659180896982
O -0.48054435134725715 11.061521521048878 -17.345283996399097
H -0.8638078581326329 10.934175592852379 -18.22611284233816
H -1.251505675960157 11.13172503154904 -16.762487250213454
O 11.708310268175568 13.826434654581606 -0.7477924556299556
H 11.289570688079609 14.584500856355687 -1.182487929138567
H 11.318282617550164 13.057856112622796 -1.1906551893162476
O -0.3888913703097061 0.17002410654970657 15.874163708846787
H 0.5482991010517502 0.07361139060567012 16.100760190491112
H -0.4044157028941142 0.9146538621332327 15.254286731941349
O 12.486114163407217 -2.027425365544712 -8.465373252382438
H 12.198680348029864 -1.6796398218615178 -9.322924635264307
H 11.695977463491854 -1.959609064907184 -7.908554710023531
O -1.9373310918482058 -12.739241295846165 -14.025000924423393
H -1.7345218515300578 -12.80880552414964 -14.969985891013929
H -1.4855530965269828 -11.928075755538083 -13.747748235599222
O -1.3474338724430464 17.7460541717089 -0.5175855267272267
H -2.00491251137531 18.457721785258748 -0.5028070263959874
H -1.0426072204277732 17.728074976967314 -1.4372155637951787
O -1.9389472369941396 4.685098218161792 13.019253042384618
H -2.871020960613379 4.559867357768978 12.785751088979849
H -1.4576000205007114 4.219787135250004 12.31871582167933
O 9.864497377172833 -14.745157226304844 -8.130860636116251
H 9.721328861414612 -13.986711293063795 -8.716718894866355
H 9.337080229320337 -14.536811526302838 -7.34512202452725
O -8.369110444949573 20.82087830910191 5.210091644854551
H -7.912491807531199 20.119507903575844 5.698503695396293
H -7.657640056458747 21.278001972912584 4.737006254480875
O 3.4275438007505103 -5.5130883460728555 -10.719707328046642
H 3.0346373333111183 -4.682177532203478 -10.412821218652246
H 2.9393650350121936 -6.19577195839783 -10.235365999596203
O -17.831664973621066 3.683620672763407 13.619936165698554
H -17.864372184034167 3.509267791662797 12.667308920581707
H -18.697437546487734 3.390291224100533 13.941428981977497
O -13.530779400479714 7.429793966394094 0.9235016237843
H -13.689839784967024 6.694218947966707 1.5339084907609917
H -12.588289709707452 7.625960258240862 1.0339276761048344
O -15.502691410723815 9.832886850533624 4.16080281016987
H -15.231149322519343 9.304700296078435 4.9264732451001425
H -14.892999809797015 10.586005600962954 4.167891097063134
O 0.7451089451509343 -0.8390012385610852 -9.474610690235604
H 0.7394876540776375 -1.5512948690143729 -10.13155326154785
H 1.357662864190241 -0.18510295042591363 -9.843604822090677
O -10.639022890436882 -11.79873926312018 -2.4683588112301202
H -10.501325577946432 -12.265364257855202 -1.6303445384868396
H -10.226780871170988 -10.933598014868322 -2.325009299808582
O 10.14440646551495 9.726032312884918 8.616277873562808
H 9.254522780569854 9.804965311435621 8.991569714545708
H 10.564187258396148 9.036544870154257 9.152331132619006
O -4.201213871414845 17.199317113428336 -13.801641363318847
H -4.580723690826141 18.07699038369014 -13.644704163973513
H -4.146997761350057 16.80626987760673 -12.917595873469805
O -15.227383390299572 -1.390086630904161 7.817909720212178
H -16.03094921343706 -1.1207560896568847 7.348111482309121
H -15.550457090061089 -1.9813929304417108 8.514287626919172
O -2.391965715472383 -11.472797155090129 -7.540195196686776
H -1.629738451944355 -10.928014622870904 -7.7875591961357316
H -3.155498500682851 -10.956968911404724 -7.84002990652734
O -13.115119019042266 -7.274593201396172 2.9050114779809224
H -13.371816445721187 -6.341610528405105 2.956169272449245
H -12.67945388949697 -7.444358265987193 3.753738561349122