194

C -5.0710522388059704 1.0783507462686561 0.47044029850746183
C -3.8153522388059704 0.1782507462686569 0.19534029850746193
C -4.11845223880597 -1.3219492537313435 0.5608402985074619
C -2.96945223880597 -2.3874492537313436 0.7034402985074619
C -2.52015223880597 0.7359507462686565 0.7384402985074618
C -2.20305223880597 0.7852507462686571 2.097440298507462
C -1.5755522388059702 1.205650746268656 -0.18965970149253808
C -0.9533522388059701 1.2695507462686564 2.508640298507462
H -2.91125223880597 0.4298507462686567 2.840840298507462
C -0.32655223880597006 1.6562507462686575 0.21554029850746192
H -1.7850522388059702 1.178550746268657 -1.2573597014925382
C 0.004447761194029898 1.6956507462686563 1.569740298507462
H -0.7158522388059702 1.2676507462686573 3.5705402985074617
H 0.3943477611940298 1.9193507462686572 -0.5551597014925382
C -1.76045223880597 -2.1592492537313435 -0.1734597014925381
C -0.5287522388059701 -1.936549253731343 0.464840298507462
C -1.8068522388059702 -2.121249253731343 -1.5681597014925381
C 0.6114477611940299 -1.614449253731343 -0.2582597014925381
H -0.4544522388059702 -1.954049253731343 1.5506402985074619
C -0.6479522388059701 -1.8270492537313432 -2.2998597014925384
H -2.74345223880597 -2.290549253731343 -2.092259701492538
C 0.5698477611940298 -1.5506492537313434 -1.6506597014925382
H 1.5072477611940298 -1.351949253731343 0.2991402985074618
H -0.7173522388059701 -1.7640492537313435 -3.3840597014925375
C 1.7791477611940298 -1.082849253731343 -2.4255597014925376
H 1.4739477611940297 -0.9102492537313429 -3.464259701492538
H 2.1252477611940295 -0.1337492537313434 -2.0010597014925384
C 1.3965477611940298 2.0964507462686566 1.997440298507462
H 1.51704776119403 1.8448507462686567 3.057640298507462
H 2.1256477611940294 1.5207507462686571 1.4165402985074618
C 3.94864776119403 -1.4275492537313434 -3.522959701492538
H 4.81734776119403 -2.087049253731343 -3.615159701492538
H 3.4305477611940303 -1.3641492537313429 -4.484459701492538
H 4.26984776119403 -0.441449253731343 -3.176459701492538
C 2.60904776119403 -3.4296492537313434 -2.8992597014925376
H 1.9825477611940296 -3.869549253731343 -2.119359701492538
H 2.06294776119403 -3.373349253731343 -3.845759701492538
H 3.5215477611940305 -4.019849253731343 -3.0234597014925377
C 3.7281477611940304 -2.060049253731343 -1.156659701492538
H 3.9048477611940298 -1.032549253731343 -0.8295597014925382
H 3.12924776119403 -2.623249253731343 -0.4404597014925382
H 4.68244776119403 -2.5769492537313434 -1.3005597014925383
C 3.1110477611940297 3.755250746268656 2.588740298507462
H 3.40124776119403 4.809350746268656 2.534540298507462
H 2.9823477611940303 3.461750746268656 3.634840298507462
H 3.86514776119403 3.1392507462686563 2.091540298507462
C 1.99744776119403 3.9574507462686572 0.40494029850746194
H 2.67914776119403 3.230350746268657 -0.04295970149253803
H 1.03214776119403 3.981150746268657 -0.10175970149253821
H 2.4399477611940297 4.958250746268657 0.368240298507462
C 0.7418477611940297 4.4992507462686575 2.475440298507462
H -0.18475223880597014 4.424250746268656 1.901240298507462
H 0.57844776119403 4.189650746268656 3.511940298507462
H 1.1210477611940297 5.524350746268658 2.4432402985074617
N 3.00114776119403 -2.025349253731343 -2.490159701492538
N 1.7831477611940298 3.586450746268657 1.862540298507462
C -3.55075223880597 -3.8435492537313434 0.6444402985074619
H -2.62515223880597 -2.2736492537313433 1.7424402985074618
H -4.67195223880597 -1.3478492537313436 1.5102402985074619
H -4.83415223880597 -1.6757492537313432 -0.1945597014925382
H -3.7169522388059697 0.17335074626865676 -0.900559701492538
H -3.9132522388059705 -4.043149253731343 -0.34225970149253815
H -4.35435223880597 -3.9354492537313432 1.3449402985074619
H -2.78115223880597 -4.545049253731343 0.8904402985074619
H -5.24235223880597 1.138950746268657 1.5249402985074618
H -5.92805223880597 0.6501507462686567 -0.006059701492538094
H -4.89895223880597 2.059650746268657 0.08004029850746197
C 0.8277020941139144 3.033148133089351 -2.9956750197271518
O -0.3148134549978511 3.193859833350719 -2.5949188993285475
O 1.3065028935101255 3.5524015593843923 -4.010444519603064
O 1.6819228905112535 2.3263772812222645 -2.4484728830780265
O -1.8630414648651312 -0.011430570247791927 12.566025783525784
H -1.0173195154920198 -0.006223095455201388 12.093062123764454
H -1.6117445588557597 0.09271913903950413 13.496060539535197
O 6.808624138250879 -10.154105756246526 -6.15860685964229
H 6.491398339442533 -9.313951286023892 -6.5225788580643265
H 6.293670140693916 -10.266222725191 -5.3454561294730265
O -5.820438568599114 -8.118790469761215 -5.522338966469683
H -6.729110233098616 -8.120606818016608 -5.858909707792692
H -5.6005581964623445 -7.178064058908989 -5.447183220354835
O -4.584127461386384 2.545670642010684 6.855416438856645
H -4.741592464121028 1.9574525894566621 6.101644820617187
H -4.538140427793891 1.9456702172968816 7.614920637254929
O -0.8425988743926238 7.001372466328003 4.474362771158316
H -0.44372950513927056 7.008936152506398 3.591292347113422
H -0.21061936488194122 6.501259530132892 5.0123691790280915
O 0.7016636891735806 -10.406957821122734 -4.605512109778033
H 0.40970287328023924 -10.759412561003916 -5.459620940793252
H -0.12434295548347563 -10.225571325030813 -4.132464642479151
O 6.044101092602555 5.598848801305876 5.359208794137505
H 6.039931282273347 4.629960476246655 5.373539988984986
H 5.874015692939319 5.819940434876339 4.431226363977032
O 2.7633640857198696 -6.193840764421106 -6.475878859124843
H 2.6806988708319803 -5.98688334292172 -7.418907196362842
H 1.8943608358049757 -6.550090359978631 -6.237380386168626
O -9.587280950787052 1.561902615002416 2.7538171705051164
H -8.92387849742925 1.246883843305409 3.385978317094623
H -9.477374046540698 2.5246334461837905 2.7594530725450075
O 2.3924433007636345 -1.9132122571144143 -8.460287942016876
H 1.7996606093618555 -1.8598941873349841 -7.695609433681864
H 2.2874471565126133 -1.0551619358917974 -8.898109138673894
O 3.4149264337778726 -5.362597044634218 4.956393366694166
H 3.1948852345965992 -5.679306670216079 4.067436539493505
H 2.9320785403687015 -4.525964042849377 5.032977153847906
O 0.8017815596900078 -6.518982794849485 -2.24455514545204
H 0.8058922957152519 -6.484536160275522 -1.2761730472512005
H 1.3070085146843016 -5.735469139810868 -2.5087785747977733
O 2.6169459663001398 -1.379232414188329 9.807809298738878
H 2.579317091162875 -0.688055596472763 9.129704563975515
H 2.632138169560715 -0.8875069206009352 10.642636933772794
O -5.343226422210003 8.083536814431078 -3.0616349859803287
H -6.264078491755194 8.151857766370373 -2.767813491803254
H -5.385324912292042 7.491927677194691 -3.8279171077678775
O -1.9246814141848034 -8.14238356771817 3.4384768100651533
H -1.3665802429915717 -8.897587299820355 3.6775537069658686
H -2.818923579119941 -8.51396681707501 3.4035657294527213
O 3.747246898789852 3.656452332350047 9.38337333642542
H 3.7033134812405315 4.539412407198759 9.780133614106536
H 4.693137151364901 3.4460906837777014 9.384618805588406
O 6.56901157452915 1.6395944602838886 6.065007976594332
H 6.532380618594452 2.337131760858777 6.736623375668838
H 7.431947307562572 1.22248898399007 6.207580367328921
O 1.5693431844123027 7.622644106955956 10.131350861140847
H 1.2685328001212697 7.936093109285181 9.265192565826707
H 2.4713659543108153 7.968852118515832 10.20522155638852
O -4.709785767042906 -8.779616792708921 6.021891050026394
H -3.8079657531750377 -8.425627202119466 6.041368966795657
H -5.2657550674664995 -8.015798551446126 6.237394589674134
O 1.7878101903578232 0.6820085191881503 4.909033569483776
H 1.9253344288289647 0.42607220715162286 5.833452870945009
H 2.4692985586676843 0.1906205521376998 4.4262567949840195
C -11.10558491742703 -12.062229360056364 -5.212351341497568
O -11.702954850607583 -12.37631753869338 -6.200944299328214
O -10.508214984246475 -11.748141181419346 -4.223758383666924
O -13.257801765616934 -4.518328549807468 -12.644196202589432
H -13.310039997348206 -4.534306838610269 -13.61165845938942
H -14.071990147881783 -4.959291754358829 -12.358520381567168
O -22.607599059327857 -13.845781175393956 4.8780651798736505
H -23.36633113997716 -13.486693973962389 5.362161625286781
H -22.15941719150762 -14.40715848592528 5.528411605156192
O 0.1375961292875394 9.123868372912957 -14.823584745339936
H 0.2133399451908753 9.223530913319486 -15.784468510054547
H 1.0277807922270954 8.861803331209646 -14.544559434509129
O -2.3897251178679983 8.86467712818216 3.1476739704252497
H -2.8084174489481843 8.999038506086253 2.28418621201616
H -2.714661938620846 7.997501980406812 3.432955007123869
O -12.180478743729111 3.2481586231784876 0.29731231986862827
H -12.457114430367552 2.996752749379765 -0.5966871993692631
H -13.010106849990713 3.4737687441115965 0.7442790109467619
O -6.862818582066352 -0.08913061302415581 -8.349069109394442
H -6.392761968344452 -0.3761674508226758 -9.146329412271065
H -6.839875562437798 -0.8665946654426024 -7.771154574755099
O 7.97980160791695 9.919328213061036 0.40385506868417087
H 7.65291732337508 10.282882895135575 1.2404804415729147
H 8.706852753023373 10.511489210930284 0.15951119357793297
O -6.42502487205503 -0.19047120614908897 -13.809897691984549
H -6.930853011489616 -0.36458571785870975 -14.617851519296647
H -5.54709115121843 0.061856073993017624 -14.133201372467912
O -12.302679464033389 3.277492612210455 12.030396155799199
H -12.377434861418475 3.113978367168518 11.078218609786816
H -11.935908796801854 4.172669535447016 12.086069291720042
O 15.730837472852098 2.6549310144879095 -3.7570376443416476
H 15.742040874342997 2.690387070886991 -2.7887480653624763
H 16.617799030417256 2.950030550334124 -4.0123363001253
O -14.049484664890986 3.67504144436644 -11.555545675121813
H -13.611070292734716 2.8188761209077997 -11.67276825867032
H -13.578545647521285 4.264367881356995 -12.163717309516969
O 8.90086021291241 5.614794986535249 13.72677685690815
H 9.1873453503559 5.50818551217974 14.646302845068153
H 9.726621945978785 5.752580458182047 13.23882740429417
O 8.163637598123948 6.446609893747933 7.0216982889449735
H 8.737219041774075 6.034358897414454 6.358357652150957
H 7.468427992811083 5.788430014989807 7.171514163199568
O 4.706489968877125 10.974453046954377 2.3715882111004287
H 4.849306988178151 11.922852241431041 2.5098257740635694
H 4.378109342937344 10.660030513582113 3.2273139728460727
O 5.086005184563456 -5.3994082397180065 8.476936164682577
H 6.031157880053212 -5.587255548880982 8.375117072422439
H 5.010264052442965 -5.0642093799716985 9.382953244891269
O 12.078435377742831 -2.596545718408305 -11.094780483387233
H 11.147764635051573 -2.4543774913604777 -10.865417188990378
H 12.56099740255279 -2.3033466812508685 -10.307297047928897
O 6.0521492147472 -13.318487855545474 13.01548216320729
H 6.607034716451116 -13.391633695939344 13.806506260774405
H 5.1784523904818744 -13.612104073121202 13.31448938777755
O 9.554815305039234 -11.670869009696624 4.650001347139809
H 8.953665747336409 -11.027128788148863 5.053963094506238
H 9.389710623224648 -11.580860553894741 3.6994221204432316
O 11.2766337713599 -17.272573305344544 16.93074836940477
H 11.218135706497842 -17.193451759096604 17.894742723240274
H 10.977656702865083 -16.409759879058267 16.606514428808815
O 10.965521302007899 -3.278294749010225 -7.578654955232321
H 10.993075845439876 -3.285049859129887 -6.6100670797540415
H 10.685897995775825 -4.17647708877909 -7.811122663611722