194

C -5.0710522388059704 1.0783507462686561 0.47044029850746183
C -3.8153522388059704 0.1782507462686569 0.19534029850746193
C -4.11845223880597 -1.3219492537313435 0.5608402985074619
C -2.96945223880597 -2.3874492537313436 0.7034402985074619
C -2.52015223880597 0.7359507462686565 0.7384402985074618
C -2.20305223880597 0.7852507462686571 2.097440298507462
C -1.5755522388059702 1.205650746268656 -0.18965970149253808
C -0.9533522388059701 1.2695507462686564 2.508640298507462
H -2.91125223880597 0.4298507462686567 2.840840298507462
C -0.32655223880597006 1.6562507462686575 0.21554029850746192
H -1.7850522388059702 1.178550746268657 -1.2573597014925382
C 0.004447761194029898 1.6956507462686563 1.569740298507462
H -0.7158522388059702 1.2676507462686573 3.5705402985074617
H 0.3943477611940298 1.9193507462686572 -0.5551597014925382
C -1.76045223880597 -2.1592492537313435 -0.1734597014925381
C -0.5287522388059701 -1.936549253731343 0.464840298507462
C -1.8068522388059702 -2.121249253731343 -1.5681597014925381
C 0.6114477611940299 -1.614449253731343 -0.2582597014925381
H -0.4544522388059702 -1.954049253731343 1.5506402985074619
C -0.6479522388059701 -1.8270492537313432 -2.2998597014925384
H -2.74345223880597 -2.290549253731343 -2.092259701492538
C 0.5698477611940298 -1.5506492537313434 -1.6506597014925382
H 1.5072477611940298 -1.351949253731343 0.2991402985074618
H -0.7173522388059701 -1.7640492537313435 -3.3840597014925375
C 1.7791477611940298 -1.082849253731343 -2.4255597014925376
H 1.4739477611940297 -0.9102492537313429 -3.464259701492538
H 2.1252477611940295 -0.1337492537313434 -2.0010597014925384
C 1.3965477611940298 2.0964507462686566 1.997440298507462
H 1.51704776119403 1.8448507462686567 3.057640298507462
H 2.1256477611940294 1.5207507462686571 1.4165402985074618
C 3.94864776119403 -1.4275492537313434 -3.522959701492538
H 4.81734776119403 -2.087049253731343 -3.615159701492538
H 3.4305477611940303 -1.3641492537313429 -4.484459701492538
H 4.26984776119403 -0.441449253731343 -3.176459701492538
C 2.60904776119403 -3.4296492537313434 -2.8992597014925376
H 1.9825477611940296 -3.869549253731343 -2.119359701492538
H 2.06294776119403 -3.373349253731343 -3.845759701492538
H 3.5215477611940305 -4.019849253731343 -3.0234597014925377
C 3.7281477611940304 -2.060049253731343 -1.156659701492538
H 3.9048477611940298 -1.032549253731343 -0.8295597014925382
H 3.12924776119403 -2.623249253731343 -0.4404597014925382
H 4.68244776119403 -2.5769492537313434 -1.3005597014925383
C 3.1110477611940297 3.755250746268656 2.588740298507462
H 3.40124776119403 4.809350746268656 2.534540298507462
H 2.9823477611940303 3.461750746268656 3.634840298507462
H 3.86514776119403 3.1392507462686563 2.091540298507462
C 1.99744776119403 3.9574507462686572 0.40494029850746194
H 2.67914776119403 3.230350746268657 -0.04295970149253803
H 1.03214776119403 3.981150746268657 -0.10175970149253821
H 2.4399477611940297 4.958250746268657 0.368240298507462
C 0.7418477611940297 4.4992507462686575 2.475440298507462
H -0.18475223880597014 4.424250746268656 1.901240298507462
H 0.57844776119403 4.189650746268656 3.511940298507462
H 1.1210477611940297 5.524350746268658 2.4432402985074617
N 3.00114776119403 -2.025349253731343 -2.490159701492538
N 1.7831477611940298 3.586450746268657 1.862540298507462
C -3.55075223880597 -3.8435492537313434 0.6444402985074619
H -2.62515223880597 -2.2736492537313433 1.7424402985074618
H -4.67195223880597 -1.3478492537313436 1.5102402985074619
H -4.83415223880597 -1.6757492537313432 -0.1945597014925382
H -3.7169522388059697 0.17335074626865676 -0.900559701492538
H -3.9132522388059705 -4.043149253731343 -0.34225970149253815
H -4.35435223880597 -3.9354492537313432 1.3449402985074619
H -2.78115223880597 -4.545049253731343 0.8904402985074619
H -5.24235223880597 1.138950746268657 1.5249402985074618
H -5.92805223880597 0.6501507462686567 -0.006059701492538094
H -4.89895223880597 2.059650746268657 0.08004029850746197
C -0.3651020744999993 2.683815586511054 -3.152474670870073
O -1.000342043587139 2.6122374089651617 -4.193206261998822
O -0.6519038438032516 3.4061291880489923 -2.190893020536719
O 0.6628690089642526 2.0450055783563883 -2.899797783437192
O 5.026457190035702 7.330937617183263 -0.5666626742165191
H 4.66279798460125 6.818450417945757 0.1709525437802908
H 4.399866343418078 8.06209768769265 -0.6750638113310159
O -7.557658247903973 -1.2035411786821195 5.609265720432275
H -6.818285280544513 -0.7074954632004764 5.991670767719014
H -8.177845111712315 -0.5160403218373948 5.323481238527918
O -5.726124736019633 -0.9459010849894077 -3.1162346073861418
H -6.001317704220566 -1.6884363627242867 -2.5577746280931333
H -5.4176753430210765 -0.27936805275912713 -2.484131266780566
O 4.961320462941605 -6.808580664072277 2.238569503379884
H 4.383331190843815 -7.437129384391145 2.696633106414859
H 4.7836660091318155 -5.963717930559016 2.6785783679065482
O -6.961582239043937 8.128404805044486 3.511799093200258
H -6.688066642043733 8.76236822929906 2.8319116379511997
H -6.505896630210662 8.4315931733734 4.311417366823554
O 0.5710664847647302 1.5844904444652785 -8.711288725059825
H 0.8644103297600261 1.6124407901236086 -7.78817685552236
H 1.393020115020685 1.6506669531810048 -9.220184435105857
O -2.4464260726421045 -2.358779342652681 8.189952236353378
H -1.5842010195320086 -2.7976041535597584 8.244432508210823
H -2.3948326589538964 -1.8421389297992992 7.3717940928562395
O -6.840441179238525 2.9815469256954867 9.470091193853314
H -7.720614659696693 2.6450525487033056 9.695997226200399
H -6.816862912976026 2.9440305299321845 8.502104350084771
O -3.6632122477777807 -6.88516340652274 -5.366417710464664
H -4.535756572127114 -7.305327630433149 -5.333315083808582
H -3.351475191102972 -7.063646995813808 -6.26637635404197
O -5.439684296706587 -7.104468514562156 -1.5093574883825625
H -5.009380316151639 -7.577691845613412 -2.237276110322765
H -6.127126726654519 -7.716463963480285 -1.206295744985641
O -8.665911094906386 -8.027206191735635 -6.444109749778005
H -8.799774093803054 -7.873298260042528 -7.391400836502851
H -8.200979260491573 -7.2327782224543515 -6.141315206776826
O -1.3785733929770476 5.796915643555362 6.535119680489663
H -2.062268878131539 5.950603627416676 5.865860504911165
H -1.0240855068215668 4.923310317934558 6.311258076108777
O -9.935915514939062 -0.6350645874750644 -6.1852669572977605
H -9.021142271345205 -0.9401396023102024 -6.280590118324429
H -9.858236443473501 0.1787355928597094 -5.665019734678227
O 0.9265207224975678 -8.280002016606042 -4.474755573111626
H 0.27951487260111874 -8.455290217315575 -5.174487545935356
H 1.7410812194828795 -8.691296888361725 -4.800776537956709
O -4.008467968838865 4.961289981655106 -3.1594647875918183
H -4.86793130127753 4.645187858775881 -2.842653195309162
H -4.040700537397709 4.808021933698664 -4.115724120252013
O 6.669643685561031 1.1801292131525392 4.69989215811359
H 7.442066918477641 0.7648928136515103 4.28769264491631
H 6.355697417976598 0.5155217726399268 5.331316449208792
O 3.3757985866188465 11.055364399172847 -0.2246925026080011
H 4.0375081923874365 10.445272590854135 0.13432802599166083
H 3.8607147201598746 11.886686753907798 -0.337481820584296
O 8.123600917218235 -7.689763896153023 -3.174522143961769
H 9.007941918261759 -7.293650387599596 -3.17608391053648
H 8.294114212737863 -8.643135810302468 -3.2056533768648032
O -2.019819221571972 8.225884281749755 -7.284485539744164
H -1.20455050947068 7.784082803571885 -7.5657607392348964
H -2.723938842574427 7.6343850692071795 -7.589946151248938
O 5.758351345761743 -6.016069561183947 -2.1256453836590468
H 4.826942683676386 -6.1806949279952175 -1.9150658269717482
H 6.226199029447189 -6.757594796426845 -1.7130671308776766
C 0.2702496113690631 -4.7349677956764875 -5.6131136743755174
O 0.4677159627384846 -4.503712369329586 -4.455380447262311
O 0.07278325999964119 -4.9662232220233875 -6.770846901488724
O -8.690093801333692 4.591425883005089 -9.127122012708629
H -8.34603091477365 5.292826229597849 -9.700380803126647
H -8.28389316414423 3.7837607509178124 -9.475891307597552
O 5.316710962353895 -4.595672017834312 7.820008188226217
H 4.749360333344616 -4.35375261728888 7.0726423980655255
H 6.212997327865167 -4.405461063801502 7.504647302470673
O 5.669373408391394 12.875304769278841 6.880520600777327
H 6.414722119143866 12.529077506520398 6.367150034030045
H 4.888469495194935 12.551097410488396 6.407191316704831
O -2.2676340244911515 1.190875531812873 -21.027700370749308
H -2.180234046595319 1.935183659039378 -21.641975563564696
H -2.256604156981018 1.607017888255128 -20.152677042204637
O 14.207447707151108 1.486005358311754 4.025046899140422
H 14.318758976712838 1.0222961882343773 4.868581702070751
H 13.89387220160342 0.7978026877154862 3.419233866262558
O 15.319458586272825 7.82227783324103 0.9138360208678877
H 15.833601373984964 7.021262822391243 0.7321783671978386
H 15.872135369018416 8.538773371327952 0.5672174091120938
O 11.058507868079491 3.388625203553305 5.005744810859327
H 10.554055820821215 3.846820934152644 4.316867346154993
H 10.569533582851914 2.563597693294978 5.144293358318778
O 9.248649498655103 3.085846226423809 -5.836480132283247
H 9.19113256258681 2.8522892950846304 -6.775154899595517
H 8.33733499075074 3.309419277827303 -5.594647746798673
O 2.1755378174139564 -17.29511274069306 -12.193658542115081
H 2.234856770278136 -17.387680228905133 -13.156404551640549
H 1.2475602692984076 -17.4922654221226 -11.996299897261103
O 0.3681116486123006 -7.685939475351516 -10.55922943899634
H 0.9514188850397529 -7.057805483279326 -11.011078653707203
H 0.02613575490389053 -7.185564082369472 -9.803161387482191
O -0.053367752447281036 -5.28523063145857 5.820308743695236
H 0.24255796912811722 -4.534451221984402 6.356709342613339
H 0.2666162962130636 -6.0603512234951795 6.305860204102627
O -9.49615226419937 21.193498794855138 7.836006156896893
H -8.897599877920984 21.878035443008756 8.170837420543311
H -8.97365584289565 20.379185054296002 7.889415575180515
O -16.211383021975852 11.386539662399475 17.06987345729432
H -16.917029858896477 11.984375302058817 16.78069799775977
H -15.67907855443373 11.249462509399796 16.27186108128741
O 1.7425338750378783 -14.157428347828185 1.7244950237970578
H 1.773512986481604 -14.293019222321606 0.7655253859522158
H 0.9456335835296062 -13.622981238033672 1.8596917564732636
O -4.061565042872386 -11.213992699362707 5.887512940492619
H -4.48635377049852 -11.779641905696858 5.225272146554856
H -3.3160175705242656 -10.816969817509467 5.412651126845455
O 5.138148925790106 -1.3326165610192344 -8.182768288768603
H 5.371606435546253 -1.4199611913033472 -7.246373145894084
H 4.4084647800137855 -0.695025525564331 -8.183582665968279
O 11.070841394766976 -6.593505825205309 -10.75775301328653
H 10.611630746334534 -6.291668017111537 -11.55586758831408
H 11.747801404682646 -7.200565404080842 -11.092664579181818
O 10.62005156373298 -7.546092546177439 5.282642351906455
H 10.012264565772043 -7.113381399084427 5.900965394652787
H 10.035897010510201 -7.940828747900293 4.6178801889500285
O 20.123954117437314 1.6482414596626462 -2.297280040955261
H 19.648445825628126 1.8647412424043779 -1.481199735229474
H 21.037317363842824 1.9147589854480964 -2.113710073736252
O 14.32639508849626 4.840397849548667 -2.596987468145729
H 14.65532847506488 3.9325583950508918 -2.5157611857139828
H 13.40622906805165 4.731457529516705 -2.8805160307112363