194

C -5.0710522388059704 1.0783507462686561 0.47044029850746183
C -3.8153522388059704 0.1782507462686569 0.19534029850746193
C -4.11845223880597 -1.3219492537313435 0.5608402985074619
C -2.96945223880597 -2.3874492537313436 0.7034402985074619
C -2.52015223880597 0.7359507462686565 0.7384402985074618
C -2.20305223880597 0.7852507462686571 2.097440298507462
C -1.5755522388059702 1.205650746268656 -0.18965970149253808
C -0.9533522388059701 1.2695507462686564 2.508640298507462
H -2.91125223880597 0.4298507462686567 2.840840298507462
C -0.32655223880597006 1.6562507462686575 0.21554029850746192
H -1.7850522388059702 1.178550746268657 -1.2573597014925382
C 0.004447761194029898 1.6956507462686563 1.569740298507462
H -0.7158522388059702 1.2676507462686573 3.5705402985074617
H 0.3943477611940298 1.9193507462686572 -0.5551597014925382
C -1.76045223880597 -2.1592492537313435 -0.1734597014925381
C -0.5287522388059701 -1.936549253731343 0.464840298507462
C -1.8068522388059702 -2.121249253731343 -1.5681597014925381
C 0.6114477611940299 -1.614449253731343 -0.2582597014925381
H -0.4544522388059702 -1.954049253731343 1.5506402985074619
C -0.6479522388059701 -1.8270492537313432 -2.2998597014925384
H -2.74345223880597 -2.290549253731343 -2.092259701492538
C 0.5698477611940298 -1.5506492537313434 -1.6506597014925382
H 1.5072477611940298 -1.351949253731343 0.2991402985074618
H -0.7173522388059701 -1.7640492537313435 -3.3840597014925375
C 1.7791477611940298 -1.082849253731343 -2.4255597014925376
H 1.4739477611940297 -0.9102492537313429 -3.464259701492538
H 2.1252477611940295 -0.1337492537313434 -2.0010597014925384
C 1.3965477611940298 2.0964507462686566 1.997440298507462
H 1.51704776119403 1.8448507462686567 3.057640298507462
H 2.1256477611940294 1.5207507462686571 1.4165402985074618
C 3.94864776119403 -1.4275492537313434 -3.522959701492538
H 4.81734776119403 -2.087049253731343 -3.615159701492538
H 3.4305477611940303 -1.3641492537313429 -4.484459701492538
H 4.26984776119403 -0.441449253731343 -3.176459701492538
C 2.60904776119403 -3.4296492537313434 -2.8992597014925376
H 1.9825477611940296 -3.869549253731343 -2.119359701492538
H 2.06294776119403 -3.373349253731343 -3.845759701492538
H 3.5215477611940305 -4.019849253731343 -3.0234597014925377
C 3.7281477611940304 -2.060049253731343 -1.156659701492538
H 3.9048477611940298 -1.032549253731343 -0.8295597014925382
H 3.12924776119403 -2.623249253731343 -0.4404597014925382
H 4.68244776119403 -2.5769492537313434 -1.3005597014925383
C 3.1110477611940297 3.755250746268656 2.588740298507462
H 3.40124776119403 4.809350746268656 2.534540298507462
H 2.9823477611940303 3.461750746268656 3.634840298507462
H 3.86514776119403 3.1392507462686563 2.091540298507462
C 1.99744776119403 3.9574507462686572 0.40494029850746194
H 2.67914776119403 3.230350746268657 -0.04295970149253803
H 1.03214776119403 3.981150746268657 -0.10175970149253821
H 2.4399477611940297 4.958250746268657 0.368240298507462
C 0.7418477611940297 4.4992507462686575 2.475440298507462
H -0.18475223880597014 4.424250746268656 1.901240298507462
H 0.57844776119403 4.189650746268656 3.511940298507462
H 1.1210477611940297 5.524350746268658 2.4432402985074617
N 3.00114776119403 -2.025349253731343 -2.490159701492538
N 1.7831477611940298 3.586450746268657 1.862540298507462
C -3.55075223880597 -3.8435492537313434 0.6444402985074619
H -2.62515223880597 -2.2736492537313433 1.7424402985074618
H -4.67195223880597 -1.3478492537313436 1.5102402985074619
H -4.83415223880597 -1.6757492537313432 -0.1945597014925382
H -3.7169522388059697 0.17335074626865676 -0.900559701492538
H -3.9132522388059705 -4.043149253731343 -0.34225970149253815
H -4.35435223880597 -3.9354492537313432 1.3449402985074619
H -2.78115223880597 -4.545049253731343 0.8904402985074619
H -5.24235223880597 1.138950746268657 1.5249402985074618
H -5.92805223880597 0.6501507462686567 -0.006059701492538094
H -4.89895223880597 2.059650746268657 0.08004029850746197
C 1.7526840616905972 -2.170470087690204 3.0206158901818476
O 1.7618377673233774 -2.959990392929185 2.0887632216292844
O 1.362938680617641 -2.42469306588995 4.1660855228598805
O 2.1317548409908804 -0.9950719000380962 2.9623678932650757
O 3.6970230807677433 -8.197595411567173 8.823963279530417
H 3.6816059935035614 -8.222178701909272 7.855394576672306
H 3.1881585768608565 -7.403436940170671 9.046069522740211
O 4.17459724224851 -7.734734169088259 4.238285425561554
H 4.590060426893427 -7.743433859589604 5.113660781902984
H 3.2247830581707744 -7.744976998814225 4.429884080212235
O -7.925917542051334 -0.7087224032493809 -7.377954672878282
H -7.899231006874132 -0.3762501963874969 -8.287744438376128
H -7.049726125702246 -1.1010579993338387 -7.246336565228804
O -5.112983685207224 3.7639516002939803 8.656115622423274
H -5.290466852968074 3.9188750035524307 7.71618699684344
H -5.602509112208693 4.468862121648842 9.106035568082772
O -2.595539717995523 2.6512398675005167 -8.026498959940628
H -2.979347488972932 3.1285329845615317 -7.275599344650054
H -3.237851557303318 2.7822323227249983 -8.740108392374996
O 0.3072761567054636 1.1206836354964937 -2.8265115783644794
H 0.3433616079409281 1.0241732215346084 -3.790021275827893
H -0.16443763108541648 0.32811113830364885 -2.5293973185224483
O 4.968145201987976 6.442369379559147 -3.6916746217121643
H 4.809143549322502 6.44182421724763 -4.647543615951282
H 4.379503205802505 7.135460166742388 -3.3568796018141707
O -3.1707997521188114 5.763170888447677 6.217539845133572
H -3.524844465501432 5.77965814528108 7.119397854017414
H -3.3847471810099257 6.640455182020963 5.86602781088652
O 9.511545053893034 -1.3960318328736747 2.724008803095927
H 9.021918473421861 -1.739761110577219 1.9617205687347332
H 9.377993015446048 -0.4375252157141336 2.6751123595848965
O -6.12984328938153 6.88991527048641 -3.130973271969412
H -5.213657940951936 6.810726555901912 -2.8255212925922897
H -6.1294720103509395 6.442626349020116 -3.9905629573341197
O 1.9768049274943773 -5.697101599321338 -8.77443714029312
H 2.580101718187911 -6.4208796560652885 -9.000591211259872
H 2.540615066232306 -5.057764626109756 -8.313646182872114
O 5.704417186805711 6.269466729427253 -0.941903907408533
H 5.734483309685908 6.510565942455585 -0.0038556385907322355
H 6.472493463624724 5.690508874516777 -1.0594988882763479
O 1.9989642557907805 1.6402327492152082 -4.982731170330569
H 1.9638948955324382 1.6073956020926388 -5.950542731865108
H 2.9021546678182664 1.3598187520449962 -4.771598477190346
O -3.095470823440709 -5.282485850720407 -2.752846121406675
H -2.846317056421902 -6.13019795027457 -3.150682712923608
H -3.878498398619528 -5.009750438633441 -3.2542891947493326
O -8.965405173288271 -1.5614782830272658 1.8710354888103864
H -9.647087784475554 -0.8844242956906347 1.9970278407070716
H -8.325625075404314 -1.1416819689239213 1.2765487981966774
O 4.335204191602741 5.967043710235855 -8.813155249997351
H 3.9651004343349574 5.076004710946591 -8.723488826505283
H 3.9218353037677907 6.312213345300096 -9.618727115133986
O 3.689351260162356 2.3464345267912607 10.63617116763663
H 3.3986969092251016 2.0010079645746326 11.493590490544882
H 2.863418987626562 2.496708919822791 10.152213078249892
O -0.34445258057500605 1.6497508326442976 -9.901051767021308
H 0.5347123017402304 1.2480567884155143 -9.969450315505634
H -0.9472615380608145 0.891381906964285 -9.879607009204625
O -1.1054858945578814 7.3228355810927415 -4.16458298903105
H -1.1268977438693493 7.297591348026295 -3.196145268624647
H -1.9523871763430152 6.932324180912913 -4.427681847904072
O 0.25452444312914635 -8.469315511975804 0.17615395662205316
H 0.4537806360763327 -9.123260838360077 -0.5105918745064373
H -0.5511500205621904 -8.034536529256382 -0.1413642933119319
C -3.583339592159107 -4.389542134528169 11.785227923823403
O -4.488571741763992 -5.151741010511499 11.605156032425919
O -2.6781074425542224 -3.6273432585448377 11.965299815220888
O -3.7887611237381007 -2.3498253050239404 -16.971860878125035
H -3.3435669695612837 -2.9049932253539623 -17.629552372842145
H -4.699572977787445 -2.6804741294961834 -16.964440251580054
O 6.9531306665002806 6.0623313430358365 -14.817468658258164
H 6.029199319576592 6.354260203018362 -14.807682761207618
H 6.950610501321494 5.259266171913 -14.275212331419173
O -0.1885766656525707 17.403700189991763 2.036036186981088
H -0.23061894937019112 17.436775962203104 1.0685105818561218
H -0.4650985521504367 18.290217992690742 2.312773925797892
O 3.832941018049334 3.578503645854723 -2.278250708783056
H 4.704585877436616 3.6743118413760256 -1.8659117879003944
H 4.0030757732608615 3.033760005148899 -3.0613665848063154
O -4.735477436466047 7.070658508575184 -12.002544446372422
H -4.614945093655343 6.1300123264162085 -11.80348648690757
H -4.259718838350334 7.196076864895701 -12.837341389656734
O 10.268638095258886 -18.168986005973068 9.544138724892745
H 10.314316845654552 -18.31384462726305 10.501163692435522
H 10.368020030852623 -19.05648770834047 9.168072369747005
O -22.471905513758855 -4.190476624631861 -4.251176275152467
H -22.773567380883506 -3.4076708105296536 -4.736132491970698
H -21.63152145668245 -3.9122254917078507 -3.8571040889501127
O -10.058325926696378 -4.770865963566729 -12.453494917492266
H -10.456276672999723 -4.905568466760992 -13.326683211074936
H -10.647803201738308 -5.249244902003771 -11.85130551392476
O -8.656530137449163 18.19133943084337 -1.5934429729117756
H -7.747911904983528 17.899311152346286 -1.761072770647905
H -8.678516927534346 18.351110261415354 -0.637957856826711
O -11.444663315612084 10.995587882026056 0.5023480243508683
H -11.335406312224348 10.91997324066093 1.462198372124914
H -10.557846278601446 11.220103379837443 0.18280103498909073
O -12.352170257976082 -14.406354234302132 12.776465828901479
H -11.882398429106548 -13.57452368898976 12.93876102163958
H -13.255722697312594 -14.127451580589803 12.564880755181093
O -10.37907231025733 8.73834660667031 -5.068116156599755
H -10.316451887577653 9.623360380433468 -4.678505248368332
H -10.603623379260279 8.90629700255917 -5.995656681984176
O -1.1023949917237217 10.891534927821992 1.0784450294600731
H -1.3887320854446983 11.817071122573022 1.0974497095470772
H -1.5930410365131928 10.479761301700371 1.8055426046610221
O -3.9813338127360787 -4.338025031954887 -13.695509411616458
H -3.199963110941469 -4.119724935974407 -13.16562994289559
H -4.692967876112473 -4.4151555652715695 -13.04237099981335
O -5.444119425102154 19.50816504843238 5.0221905856234
H -5.544256182046009 20.314374201151267 4.494017518455948
H -4.667801058161958 19.68507411520664 5.574454036835198
O 5.432589888036805 7.664457209584388 9.994160008432988
H 5.779246823278354 7.60824832557708 10.89728618317691
H 6.220246069198345 7.5831616610099415 9.43563452256865
O 1.1413944257023525 -13.35475776339667 -0.011633111498005722
H 1.0691473594177392 -12.849674919302013 -0.8354286194455307
H 0.30724572186049226 -13.845570817327152 0.03591087098531087
O -1.8892606017886957 1.8960969799401124 6.29928689915259
H -2.3704935146462724 1.0605045943036338 6.395034512955498
H -1.2184992741087233 1.8612535641361336 6.997733118960609
O 8.523305697292397 -8.492039127683423 -7.926519387119069
H 9.25959498019668 -7.9521598918930865 -8.251135867820128
H 8.551741028389847 -8.372951542235894 -6.965285012350016
O 3.053797084739788 -12.92432712369655 4.5933375572555315
H 3.026762866576255 -12.836446012195566 3.628706322954237
H 2.6272142994692196 -12.115559525559501 4.914092984044286