194

C -5.0710522388059704 1.0783507462686561 0.47044029850746183
C -3.8153522388059704 0.1782507462686569 0.19534029850746193
C -4.11845223880597 -1.3219492537313435 0.5608402985074619
C -2.96945223880597 -2.3874492537313436 0.7034402985074619
C -2.52015223880597 0.7359507462686565 0.7384402985074618
C -2.20305223880597 0.7852507462686571 2.097440298507462
C -1.5755522388059702 1.205650746268656 -0.18965970149253808
C -0.9533522388059701 1.2695507462686564 2.508640298507462
H -2.91125223880597 0.4298507462686567 2.840840298507462
C -0.32655223880597006 1.6562507462686575 0.21554029850746192
H -1.7850522388059702 1.178550746268657 -1.2573597014925382
C 0.004447761194029898 1.6956507462686563 1.569740298507462
H -0.7158522388059702 1.2676507462686573 3.5705402985074617
H 0.3943477611940298 1.9193507462686572 -0.5551597014925382
C -1.76045223880597 -2.1592492537313435 -0.1734597014925381
C -0.5287522388059701 -1.936549253731343 0.464840298507462
C -1.8068522388059702 -2.121249253731343 -1.5681597014925381
C 0.6114477611940299 -1.614449253731343 -0.2582597014925381
H -0.4544522388059702 -1.954049253731343 1.5506402985074619
C -0.6479522388059701 -1.8270492537313432 -2.2998597014925384
H -2.74345223880597 -2.290549253731343 -2.092259701492538
C 0.5698477611940298 -1.5506492537313434 -1.6506597014925382
H 1.5072477611940298 -1.351949253731343 0.2991402985074618
H -0.7173522388059701 -1.7640492537313435 -3.3840597014925375
C 1.7791477611940298 -1.082849253731343 -2.4255597014925376
H 1.4739477611940297 -0.9102492537313429 -3.464259701492538
H 2.1252477611940295 -0.1337492537313434 -2.0010597014925384
C 1.3965477611940298 2.0964507462686566 1.997440298507462
H 1.51704776119403 1.8448507462686567 3.057640298507462
H 2.1256477611940294 1.5207507462686571 1.4165402985074618
C 3.94864776119403 -1.4275492537313434 -3.522959701492538
H 4.81734776119403 -2.087049253731343 -3.615159701492538
H 3.4305477611940303 -1.3641492537313429 -4.484459701492538
H 4.26984776119403 -0.441449253731343 -3.176459701492538
C 2.60904776119403 -3.4296492537313434 -2.8992597014925376
H 1.9825477611940296 -3.869549253731343 -2.119359701492538
H 2.06294776119403 -3.373349253731343 -3.845759701492538
H 3.5215477611940305 -4.019849253731343 -3.0234597014925377
C 3.7281477611940304 -2.060049253731343 -1.156659701492538
H 3.9048477611940298 -1.032549253731343 -0.8295597014925382
H 3.12924776119403 -2.623249253731343 -0.4404597014925382
H 4.68244776119403 -2.5769492537313434 -1.3005597014925383
C 3.1110477611940297 3.755250746268656 2.588740298507462
H 3.40124776119403 4.809350746268656 2.534540298507462
H 2.9823477611940303 3.461750746268656 3.634840298507462
H 3.86514776119403 3.1392507462686563 2.091540298507462
C 1.99744776119403 3.9574507462686572 0.40494029850746194
H 2.67914776119403 3.230350746268657 -0.04295970149253803
H 1.03214776119403 3.981150746268657 -0.10175970149253821
H 2.4399477611940297 4.958250746268657 0.368240298507462
C 0.7418477611940297 4.4992507462686575 2.475440298507462
H -0.18475223880597014 4.424250746268656 1.901240298507462
H 0.57844776119403 4.189650746268656 3.511940298507462
H 1.1210477611940297 5.524350746268658 2.4432402985074617
N 3.00114776119403 -2.025349253731343 -2.490159701492538
N 1.7831477611940298 3.586450746268657 1.862540298507462
C -3.55075223880597 -3.8435492537313434 0.6444402985074619
H -2.62515223880597 -2.2736492537313433 1.7424402985074618
H -4.67195223880597 -1.3478492537313436 1.5102402985074619
H -4.83415223880597 -1.6757492537313432 -0.1945597014925382
H -3.7169522388059697 0.17335074626865676 -0.900559701492538
H -3.9132522388059705 -4.043149253731343 -0.34225970149253815
H -4.35435223880597 -3.9354492537313432 1.3449402985074619
H -2.78115223880597 -4.545049253731343 0.8904402985074619
H -5.24235223880597 1.138950746268657 1.5249402985074618
H -5.92805223880597 0.6501507462686567 -0.006059701492538094
H -4.89895223880597 2.059650746268657 0.08004029850746197
C -0.1832406929959548 -3.6390411163587015 3.6855053628454297
O -1.2853277180747993 -3.1127698080868744 3.700276884186193
O 0.03421475260378204 -4.842413918743404 3.8678196293190386
O 0.8851592053210559 -3.0496776885167236 3.4859538867833484
O 6.121898939925126 2.2023288688897926 2.8378546602276895
H 6.262190913951605 1.330862629347916 2.438064574979825
H 5.767583861254848 2.00211632295312 3.717250876831121
O -2.3141827416094585 -10.245622758760558 0.012000288152409944
H -3.0581536499356448 -9.62480400791287 0.019663385452249216
H -2.7369272225962833 -11.11730164897289 -0.008614280806852115
O 1.9075961590982953 4.391311279995522 -3.998984906942674
H 1.609201147829236 3.707410613166932 -3.3807554575784833
H 2.463922713584334 4.97043086843723 -3.45669051147394
O 5.771064812689476 4.995657194744293 -2.2674195914404724
H 6.298276470377301 4.873275156895449 -1.463654786469502
H 5.825634968194477 4.1384298019173205 -2.7159117757817715
O -8.932512200757023 3.8809027052662852 -1.235447877854377
H -9.533016154425258 3.4864820553868543 -1.885674537933387
H -8.461315390770412 4.563794763716951 -1.736041472563155
O -4.283861702297499 6.965833316097405 -3.8871043135707897
H -4.746117973549192 6.676775490435111 -4.688186125879539
H -4.4217608493343965 7.924826711471259 -3.8704478680969614
O -5.73282729476323 -7.098744941017106 -4.116573367188566
H -6.118179511825181 -6.9254013811196495 -3.244550984478398
H -4.962757139634348 -6.511699135210048 -4.1530579168516475
O -1.5685825929530894 -11.24947017562921 5.848143372047624
H -0.9331104937739525 -11.100797070204887 5.13187605058981
H -2.2591330095770594 -11.792630919169405 5.439391034956657
O 0.49936401069245684 -6.64755118354269 -0.7426508805060621
H 1.0042454991696 -7.115974345909381 -1.4242972554333369
H 0.5295184845200187 -7.242737887593438 0.02142073873482353
O 3.4997081087780924 -7.605784163681954 -2.6625930767108907
H 4.149492466020354 -7.58136740186707 -3.3810298990729803
H 3.2178295513879993 -8.53241818789329 -2.6333388743190023
O -5.653099438103534 -0.8509464532690667 4.863263824486605
H -5.252394117525763 -0.8817862752799195 5.744995931386998
H -6.583345989875696 -1.071625704091392 5.0210737274474155
O 10.349860401059015 -1.950270514023719 5.359468824802628
H 9.41783770279209 -2.130682920830858 5.553768619669464
H 10.449028354192501 -2.20627186872401 4.430172872071245
O 1.5464260557507112 0.7819779364855929 5.331017580561532
H 1.1061898794285354 0.7040330699437397 6.19071756528702
H 2.423498017872271 1.13210869602679 5.548077868922485
O -4.1254665315849 0.5285259924299144 -4.629198381513797
H -4.6929195522868925 0.800124036890284 -3.89217807755909
H -4.55832866818367 0.906407505988704 -5.409453389001517
O 7.307092041501002 -5.848483745523615 4.384040973655457
H 7.593102192984269 -5.618513183736024 5.280857058959251
H 7.967163741189204 -5.427862472687093 3.812774800660669
O -7.620977195984995 -1.8184094327497298 -3.799011081383497
H -7.8623563383211295 -0.9098025651512246 -4.033823829542334
H -7.97905027442055 -2.350810966494472 -4.525161356234323
O 0.5617159792654141 -7.052499523906339 6.795723933027043
H 0.6106732452990165 -6.789728363599823 7.727132468694224
H -0.35374345380689354 -6.857178496506588 6.54523308098962
O 6.9652038243145435 8.147340676531341 -5.030071610120112
H 6.75364925845148 7.547624767907994 -5.761202823724459
H 6.697815251339169 7.655563514003197 -4.239109842549795
O -3.824404501192994 -2.700323487833546 -4.654877165112633
H -4.232195562565193 -2.047560863091495 -5.24358317230536
H -2.8737675792598303 -2.536305823738118 -4.746253271519721
O 2.4353019952136217 1.3493449119111296 -9.07110856790866
H 2.474371711943445 0.7807034450841304 -8.287471026477997
H 3.2652037303119914 1.1645991466018573 -9.53596774721031
C -16.59178118230202 -1.5700842704178934 7.952838020631056
O -17.394532073497427 -2.214828920010485 8.56334076493832
O -15.789030291106611 -0.9253396208253002 7.342335276323789
O -0.8505521677908816 -8.409859941873009 10.679792206994964
H -0.7130001839253421 -8.360511701198876 9.721871772002045
H -1.717449056589392 -8.833258603050677 10.770264866978088
O 10.948973421439707 6.937180861339671 -7.269034841732009
H 10.372892148179538 6.6082756906647795 -7.975376906317052
H 11.769568116904944 7.173259023305533 -7.727132420329774
O -8.298170438919936 15.646669831161471 -4.762201386393476
H -8.888421290122807 16.225187258773804 -4.256346787221839
H -8.897938443096521 15.13664734170976 -5.327106109085289
O 11.934783234435969 -3.199535452752699 -3.1515827003135755
H 12.15889521002822 -2.275249861371884 -3.3371556640285407
H 12.779675582614402 -3.5980933575330023 -2.8941522032339435
O -1.4620467059148217 -9.68452301851628 16.398193543300117
H -2.2778189770703747 -9.517484598156834 16.893754966977887
H -1.5326461609503228 -9.10118143298582 15.627680561034733
O 5.398003264773036 -13.674481632293183 -22.358493635713042
H 6.27955571591202 -13.87560381450402 -22.70689355048571
H 4.811540685703586 -14.27175930144505 -22.846636005912266
O 15.614551784459536 4.712550346436851 -7.278008423969695
H 15.731572149143098 4.119093187271672 -6.520986501311624
H 15.022439998615763 4.223827299651928 -7.869206665599488
O -10.133967375426193 1.8800611085444923 14.555900531350867
H -10.200613164647983 1.9135810859812645 13.589773155281001
H -10.869605313844755 2.432311322299702 14.860561768246235
O -12.244224074746455 7.4023395015185836 3.278131306344322
H -11.459033394645642 7.029320346066172 2.8499962079835424
H -11.949690815741434 8.270682388476777 3.5914885055738783
O 0.2255224115028902 10.349087877654085 -7.336637596734233
H 0.5445843524303422 11.255680578177019 -7.21312035052892
H -0.7176268080270676 10.401403879614367 -7.12054842546709
O 7.888035078376133 -2.886540548819451 -7.0605975487659585
H 7.970716404259304 -1.968087718699114 -7.358214003442352
H 8.798903194393798 -3.1513632926971775 -6.862733621160393
O -4.740702758817166 2.6880362927455943 5.237136277719303
H -5.394007723970788 2.00376761891125 5.4467462999382175
H -4.1394278472971715 2.254293750941521 4.61319891507305
O 6.394785001702392 13.965921507120205 3.6838430190410096
H 6.432196153576569 13.880764853611353 2.719314063032626
H 6.847429599152497 13.172263185215696 4.00661427050395
O 11.078238330966528 1.035121128404091 -20.10378864497469
H 10.746668795954438 0.9700190914954749 -21.0119685418796
H 11.48358222655609 0.17033874980310237 -19.940051940874806
O 10.183486559184047 -3.6925993930065877 0.20403277105172535
H 9.483884573921637 -3.914143150222383 -0.42877271466691713
H 9.816386320088933 -2.951370131377206 0.7087886927214662
O -11.344018715379866 -5.727476995182168 4.50740776996581
H -11.325701470895668 -6.696301689725339 4.504160201977472
H -11.23829281118188 -5.488249322242144 3.574372884240084
O -4.307407271945151 10.135393744755543 -10.742966119699378
H -4.589926739143819 10.930492229051229 -11.219378239428176
H -5.080662937275751 9.552643985863444 -10.780917916038074
O 7.683583682000788 -8.615209374833924 -11.789995789345133
H 7.940588489132151 -7.703389283196615 -11.993711293168236
H 6.720321579773636 -8.615966815872245 -11.895292954530158
O -5.237818355423621 -20.1770312571148 6.509389116881672
H -6.018894808651131 -20.213799191725023 7.081695896588179
H -5.062548648910564 -19.228879055444146 6.413212837342894
O 8.355640122328374 -19.711393317324678 -4.7304083459227275
H 9.309668478973927 -19.854862385444484 -4.821038793946681
H 8.215477292936539 -19.667643076830664 -3.772597173502197