194

C -5.0710522388059704 1.0783507462686561 0.47044029850746183
C -3.8153522388059704 0.1782507462686569 0.19534029850746193
C -4.11845223880597 -1.3219492537313435 0.5608402985074619
C -2.96945223880597 -2.3874492537313436 0.7034402985074619
C -2.52015223880597 0.7359507462686565 0.7384402985074618
C -2.20305223880597 0.7852507462686571 2.097440298507462
C -1.5755522388059702 1.205650746268656 -0.18965970149253808
C -0.9533522388059701 1.2695507462686564 2.508640298507462
H -2.91125223880597 0.4298507462686567 2.840840298507462
C -0.32655223880597006 1.6562507462686575 0.21554029850746192
H -1.7850522388059702 1.178550746268657 -1.2573597014925382
C 0.004447761194029898 1.6956507462686563 1.569740298507462
H -0.7158522388059702 1.2676507462686573 3.5705402985074617
H 0.3943477611940298 1.9193507462686572 -0.5551597014925382
C -1.76045223880597 -2.1592492537313435 -0.1734597014925381
C -0.5287522388059701 -1.936549253731343 0.464840298507462
C -1.8068522388059702 -2.121249253731343 -1.5681597014925381
C 0.6114477611940299 -1.614449253731343 -0.2582597014925381
H -0.4544522388059702 -1.954049253731343 1.5506402985074619
C -0.6479522388059701 -1.8270492537313432 -2.2998597014925384
H -2.74345223880597 -2.290549253731343 -2.092259701492538
C 0.5698477611940298 -1.5506492537313434 -1.6506597014925382
H 1.5072477611940298 -1.351949253731343 0.2991402985074618
H -0.7173522388059701 -1.7640492537313435 -3.3840597014925375
C 1.7791477611940298 -1.082849253731343 -2.4255597014925376
H 1.4739477611940297 -0.9102492537313429 -3.464259701492538
H 2.1252477611940295 -0.1337492537313434 -2.0010597014925384
C 1.3965477611940298 2.0964507462686566 1.997440298507462
H 1.51704776119403 1.8448507462686567 3.057640298507462
H 2.1256477611940294 1.5207507462686571 1.4165402985074618
C 3.94864776119403 -1.4275492537313434 -3.522959701492538
H 4.81734776119403 -2.087049253731343 -3.615159701492538
H 3.4305477611940303 -1.3641492537313429 -4.484459701492538
H 4.26984776119403 -0.441449253731343 -3.176459701492538
C 2.60904776119403 -3.4296492537313434 -2.8992597014925376
H 1.9825477611940296 -3.869549253731343 -2.119359701492538
H 2.06294776119403 -3.373349253731343 -3.845759701492538
H 3.5215477611940305 -4.019849253731343 -3.0234597014925377
C 3.7281477611940304 -2.060049253731343 -1.156659701492538
H 3.9048477611940298 -1.032549253731343 -0.8295597014925382
H 3.12924776119403 -2.623249253731343 -0.4404597014925382
H 4.68244776119403 -2.5769492537313434 -1.3005597014925383
C 3.1110477611940297 3.755250746268656 2.588740298507462
H 3.40124776119403 4.809350746268656 2.534540298507462
H 2.9823477611940303 3.461750746268656 3.634840298507462
H 3.86514776119403 3.1392507462686563 2.091540298507462
C 1.99744776119403 3.9574507462686572 0.40494029850746194
H 2.67914776119403 3.230350746268657 -0.04295970149253803
H 1.03214776119403 3.981150746268657 -0.10175970149253821
H 2.4399477611940297 4.958250746268657 0.368240298507462
C 0.7418477611940297 4.4992507462686575 2.475440298507462
H -0.18475223880597014 4.424250746268656 1.901240298507462
H 0.57844776119403 4.189650746268656 3.511940298507462
H 1.1210477611940297 5.524350746268658 2.4432402985074617
N 3.00114776119403 -2.025349253731343 -2.490159701492538
N 1.7831477611940298 3.586450746268657 1.862540298507462
C -3.55075223880597 -3.8435492537313434 0.6444402985074619
H -2.62515223880597 -2.2736492537313433 1.7424402985074618
H -4.67195223880597 -1.3478492537313436 1.5102402985074619
H -4.83415223880597 -1.6757492537313432 -0.1945597014925382
H -3.7169522388059697 0.17335074626865676 -0.900559701492538
H -3.9132522388059705 -4.043149253731343 -0.34225970149253815
H -4.35435223880597 -3.9354492537313432 1.3449402985074619
H -2.78115223880597 -4.545049253731343 0.8904402985074619
H -5.24235223880597 1.138950746268657 1.5249402985074618
H -5.92805223880597 0.6501507462686567 -0.006059701492538094
H -4.89895223880597 2.059650746268657 0.08004029850746197
C 3.3869108320674077 -2.7297405692187713 2.8676451346125242
O 3.4463519784079506 -2.1703242663655566 3.9517556681024275
O 2.363468899485546 -2.854133119305945 2.185204977370943
O 4.34101426114041 -3.258044411848058 2.285210519488844
O -6.129779913926082 2.8765549268967656 3.312583298477503
H -6.201711473070725 3.0654597360367077 2.364897601221908
H -5.680860746447319 3.6559140243867807 3.6731840784679566
O 4.097588265392074 -0.28785224138289767 -9.930748359401882
H 4.983051423511598 -0.00011930832740913999 -10.199322579587449
H 3.9010291577822547 0.2551225516311777 -9.152606447108916
O 7.236523204176102 1.687171307692111 4.262115637868803
H 7.452656474809452 2.068977221891594 3.3981260487488703
H 6.825218136138509 0.8368378985569145 4.045960187752214
O 3.185430538465372 4.7470641162344815 8.253243365143321
H 3.449579675381479 4.781276915560573 7.321566342388789
H 3.911449861729151 5.188842849946603 8.718742491874318
O -7.112425395938646 4.121060127737372 -0.6256995238062388
H -6.612766980852523 3.9001176120829673 -1.4260077331293273
H -7.08640468261928 5.089170092016954 -0.5933272541772046
O 6.54427772861739 -4.678765735914945 -3.2644792870831854
H 5.729594642247723 -4.448507610778833 -2.7930558876936367
H 7.1865013107421225 -4.8399611290898275 -2.5570000576480947
O -2.2826721396391703 -7.798778993221497 -0.8218022477741576
H -1.4597058151653042 -8.128628282355235 -0.43078660596433904
H -2.1236158684955764 -6.849773867823039 -0.936048993361724
O -2.232837743378139 -4.097351974571511 -7.675442260321686
H -2.6046559274469616 -4.049209346597664 -8.568975070165587
H -3.010364518605531 -4.083495392147611 -7.097322849448791
O -5.384364917094642 -4.255496047404964 -6.296153797893249
H -6.184087918418926 -4.203717794330332 -5.7514249749350554
H -5.291226361426359 -3.362509583551462 -6.660656649901902
O 1.3084853114482788 -8.249423615911757 -6.782045980253494
H 2.0405186788703773 -7.747050220013293 -6.393825067661051
H 1.4455424861868544 -8.16236853158554 -7.7373462929539745
O -0.5090601111571238 0.6109836631698283 8.413696467657921
H -1.2278318756602968 1.2018974060005927 8.143223814721006
H -0.390535668315539 0.022993601081873205 7.652656660791754
O 6.682283876669237 1.586900087443547 -6.4396699025692135
H 7.143671418087808 0.820167257274794 -6.811435501657056
H 6.281953191099309 1.2469574650102868 -5.625338090625023
O -11.487913206068491 1.5616121079007423 1.7142975075151794
H -10.943154989085695 1.4947704782827862 0.9157124848158151
H -12.00514678429934 2.369579724645336 1.5778434854323757
O -8.758953575168176 1.8824289935454863 -6.403242785413685
H -8.667312949014972 2.023602017158099 -5.448968438099285
H -9.467695673328798 2.4901302097110274 -6.662753506706275
O -6.547132448178245 -4.484581126067309 -0.31311389787668664
H -6.04589192391838 -5.163375977519646 -0.7895200726703164
H -6.729368849603075 -4.889500663777452 0.5481595814992501
O 4.591272397031009 2.977752671267857 10.278914256298151
H 5.048048207433159 2.4896885741280084 10.98042452209226
H 5.0302892393960175 3.8415577042561058 10.270727596171799
O 4.446585653799546 2.452784119898227 7.31715456316481
H 4.7070101000141245 2.0623720639518557 6.4693781237153765
H 4.389593067626903 1.6937001413170116 7.916742173846239
O 1.8090410421201668 -1.6638982985009139 7.971401661156064
H 2.1226804751288406 -1.971280598428025 7.107622878912881
H 2.5778500805816336 -1.7713349452885472 8.551360257615313
O 2.1310760437221 8.278848433524502 4.910531029727212
H 1.627774427526839 9.061188251159697 4.639239213083642
H 2.6897625701136363 8.59940167975131 5.634462605127826
O -4.7356771359981025 -0.24626969933992937 4.700199086075994
H -4.312266399130704 -0.06717944354986072 5.553204001118373
H -5.610830619203031 0.16139606997884837 4.7831264377761915
C 19.360426420307256 7.046186546207009 -5.87581007010268
O 18.884957034425415 5.9486461209149315 -5.829418958466593
O 19.8358958061891 8.143726971499087 -5.9222011817387665
O -1.8127850560314407 11.792421783437144 -0.9987677268134072
H -1.7508972185305618 12.66369143883433 -0.5792126767263723
H -1.7204441016637313 11.98107265901366 -1.944730696273984
O -7.227574346519156 -6.304029143918002 -5.223814420658697
H -6.859730755988647 -6.053965874668227 -4.362927197395547
H -7.3539764785677 -7.262276064422402 -5.154913878879864
O -12.498016090342928 -11.86066908428963 4.983347686226252
H -12.34648595393502 -11.458546533381158 4.114841250607571
H -12.998324603465615 -11.187636185734695 5.4688165868364855
O -9.299043691130281 4.498001073979588 8.82472611013545
H -10.059500293449805 4.175287482041782 9.331213079826917
H -8.742151836798204 3.7129414076504457 8.712856868689224
O -5.989556332174272 8.329917432265768 4.138981597606317
H -5.950270227562294 8.38469220179845 3.172325669415185
H -5.78000730368416 9.229116643814223 4.433076696017511
O -0.06304573548553938 2.9813965070146358 -16.200921524813822
H -0.31606491841366635 3.912723478423467 -16.28797738215173
H -0.5660384957964233 2.5359507727605894 -16.899160971715602
O 16.01661323257144 0.6629723405139312 2.8865249667911623
H 15.636496715998966 -0.1386707985192358 3.2762005605481503
H 15.735660694518264 0.6286297146554781 1.959784334407633
O 9.080591462977733 -7.886832765517202 -7.843172769649495
H 9.305626570004565 -7.223929046735776 -7.173183801731975
H 9.910692553242544 -8.365670441773718 -7.986729741052597
O -2.823494468794865 -10.981121291481038 9.771931520931659
H -2.8274390527457833 -10.93632993891069 10.73989098903576
H -2.986393834501932 -10.067039391713804 9.49465905300497
O -19.05474413929045 -1.1518265978135727 4.141319366022118
H -19.720046892854064 -0.5186454287362015 3.832416128540715
H -18.221880581503015 -0.8095490078202818 3.783344101795608
O 17.049627413956046 9.095686137057447 -9.36382811094893
H 17.191250566207092 8.454377233422306 -8.651344335860141
H 17.881316627994373 9.080821296686837 -9.860853293483034
O 15.916384910393077 -15.344256092239505 -8.564834762560231
H 16.880027695397505 -15.244942003963011 -8.58712044582827
H 15.71212785015764 -15.43445923438916 -7.621911440762373
O -0.32720416016658493 9.71963417224387 -6.963495803973989
H -0.22904208844941598 9.648334528407164 -6.002117665380775
H -0.10421187024067136 8.834178313453496 -7.287847935256331
O -5.420442664867893 -8.598504406178098 -15.025601311665595
H -5.148026254368237 -9.359623880885636 -14.491322544156155
H -5.008661612546025 -7.841768908275508 -14.582036552624917
O 11.037293364328754 -9.763469867222522 1.0893680851270644
H 10.465547507669653 -9.64577693577056 0.3159196988856845
H 11.401567462005085 -8.879637056763436 1.247816465422002
O -10.612968974755596 -4.325830579209217 10.09214170320146
H -10.873933377645475 -3.521663507884086 9.618664925818775
H -9.721452540939675 -4.127813985175363 10.41610130102714
O 8.805830866721195 -12.338965384021854 -11.448546377099078
H 7.90678614696682 -12.169392001825486 -11.129280317468151
H 8.80018295355525 -11.99841752401756 -12.355716262194129
O -7.910327249341473 -17.125147249850514 -13.060524720032282
H -8.318418477654305 -17.00160823233268 -13.930678164790647
H -7.732361732728272 -16.222876274773 -12.755242380665468
O -1.568858580189243 -3.1314442580451036 20.208465332563826
H -1.670774798717276 -3.6616032002085426 19.403784068121134
H -2.435305054507239 -3.1896419128598534 20.63840193767669
O -8.074521999053413 -11.474296219287499 -17.607723274427755
H -8.114055126711296 -11.502790563708304 -16.63994615078119
H -7.800685853644135 -10.565783561095818 -17.804142366353343