194

C -5.0710522388059704 1.0783507462686561 0.47044029850746183
C -3.8153522388059704 0.1782507462686569 0.19534029850746193
C -4.11845223880597 -1.3219492537313435 0.5608402985074619
C -2.96945223880597 -2.3874492537313436 0.7034402985074619
C -2.52015223880597 0.7359507462686565 0.7384402985074618
C -2.20305223880597 0.7852507462686571 2.097440298507462
C -1.5755522388059702 1.205650746268656 -0.18965970149253808
C -0.9533522388059701 1.2695507462686564 2.508640298507462
H -2.91125223880597 0.4298507462686567 2.840840298507462
C -0.32655223880597006 1.6562507462686575 0.21554029850746192
H -1.7850522388059702 1.178550746268657 -1.2573597014925382
C 0.004447761194029898 1.6956507462686563 1.569740298507462
H -0.7158522388059702 1.2676507462686573 3.5705402985074617
H 0.3943477611940298 1.9193507462686572 -0.5551597014925382
C -1.76045223880597 -2.1592492537313435 -0.1734597014925381
C -0.5287522388059701 -1.936549253731343 0.464840298507462
C -1.8068522388059702 -2.121249253731343 -1.5681597014925381
C 0.6114477611940299 -1.614449253731343 -0.2582597014925381
H -0.4544522388059702 -1.954049253731343 1.5506402985074619
C -0.6479522388059701 -1.8270492537313432 -2.2998597014925384
H -2.74345223880597 -2.290549253731343 -2.092259701492538
C 0.5698477611940298 -1.5506492537313434 -1.6506597014925382
H 1.5072477611940298 -1.351949253731343 0.2991402985074618
H -0.7173522388059701 -1.7640492537313435 -3.3840597014925375
C 1.7791477611940298 -1.082849253731343 -2.4255597014925376
H 1.4739477611940297 -0.9102492537313429 -3.464259701492538
H 2.1252477611940295 -0.1337492537313434 -2.0010597014925384
C 1.3965477611940298 2.0964507462686566 1.997440298507462
H 1.51704776119403 1.8448507462686567 3.057640298507462
H 2.1256477611940294 1.5207507462686571 1.4165402985074618
C 3.94864776119403 -1.4275492537313434 -3.522959701492538
H 4.81734776119403 -2.087049253731343 -3.615159701492538
H 3.4305477611940303 -1.3641492537313429 -4.484459701492538
H 4.26984776119403 -0.441449253731343 -3.176459701492538
C 2.60904776119403 -3.4296492537313434 -2.8992597014925376
H 1.9825477611940296 -3.869549253731343 -2.119359701492538
H 2.06294776119403 -3.373349253731343 -3.845759701492538
H 3.5215477611940305 -4.019849253731343 -3.0234597014925377
C 3.7281477611940304 -2.060049253731343 -1.156659701492538
H 3.9048477611940298 -1.032549253731343 -0.8295597014925382
H 3.12924776119403 -2.623249253731343 -0.4404597014925382
H 4.68244776119403 -2.5769492537313434 -1.3005597014925383
C 3.1110477611940297 3.755250746268656 2.588740298507462
H 3.40124776119403 4.809350746268656 2.534540298507462
H 2.9823477611940303 3.461750746268656 3.634840298507462
H 3.86514776119403 3.1392507462686563 2.091540298507462
C 1.99744776119403 3.9574507462686572 0.40494029850746194
H 2.67914776119403 3.230350746268657 -0.04295970149253803
H 1.03214776119403 3.981150746268657 -0.10175970149253821
H 2.4399477611940297 4.958250746268657 0.368240298507462
C 0.7418477611940297 4.4992507462686575 2.475440298507462
H -0.18475223880597014 4.424250746268656 1.901240298507462
H 0.57844776119403 4.189650746268656 3.511940298507462
H 1.1210477611940297 5.524350746268658 2.4432402985074617
N 3.00114776119403 -2.025349253731343 -2.490159701492538
N 1.7831477611940298 3.586450746268657 1.862540298507462
C -3.55075223880597 -3.8435492537313434 0.6444402985074619
H -2.62515223880597 -2.2736492537313433 1.7424402985074618
H -4.67195223880597 -1.3478492537313436 1.5102402985074619
H -4.83415223880597 -1.6757492537313432 -0.1945597014925382
H -3.7169522388059697 0.17335074626865676 -0.900559701492538
H -3.9132522388059705 -4.043149253731343 -0.34225970149253815
H -4.35435223880597 -3.9354492537313432 1.3449402985074619
H -2.78115223880597 -4.545049253731343 0.8904402985074619
H -5.24235223880597 1.138950746268657 1.5249402985074618
H -5.92805223880597 0.6501507462686567 -0.006059701492538094
H -4.89895223880597 2.059650746268657 0.08004029850746197
C 1.9145616742088325 -2.68200920675648 3.3596603084546213
O 1.0606472838164458 -2.895781798233695 4.2063639116204
O 1.6913599297672934 -2.4382486809181367 2.1682773929227306
O 3.134069895686099 -2.6763543011943307 3.5631697779945855
O -8.46304565847189 -0.30472427338298846 -2.3228974973387064
H -8.473891085691593 -0.4262770165396006 -1.3616094737788966
H -8.664899704874829 0.6354766727091148 -2.4422250684120916
O 8.696275320338627 -1.8585069341776577 6.583845812172446
H 9.599609795810222 -2.051825281050757 6.2913014581221445
H 8.438025311796029 -1.0896595899661135 6.05361695716114
O -4.731700363231806 -3.2855034800099467 5.3924882975066
H -4.714671373727989 -3.0476812079484814 4.453276959559701
H -4.872535141605572 -4.244207212646509 5.388659129302564
O -3.084682748252767 8.649748056551905 -1.3655679102310292
H -3.28223109890689 7.972861916903348 -2.0302235804885775
H -2.125839976078789 8.583790725678847 -1.2421494632556171
O -5.529448230411592 -6.819142482634546 5.050655028677434
H -5.859471321609183 -6.928853032575893 4.1462128185788805
H -6.277540320952141 -6.428789740919146 5.527042376752442
O -9.435781198188481 5.978771406044449 -7.035263828563159
H -9.562911216862783 5.505239769276555 -6.199456970352607
H -10.232036503739685 6.524683634923191 -7.118445984355141
O 0.13908995153467885 -5.203115303995698 -2.6723977876342206
H -0.10458964875973131 -4.300172796308193 -2.9259376012954217
H 0.9998886588272136 -5.340800272012416 -3.09551760447779
O 5.975644329706204 -3.313838792860166 3.5658919571073584
H 5.863320345983127 -4.099958899086858 4.12119895163085
H 6.701078826610324 -2.830248242060052 3.9887949178185673
O 1.1081611754756069 12.197124457756686 -4.9757155520058856
H 1.3715729109144839 12.4108209584107 -5.883413420319627
H 0.19219307092560323 11.893294809691325 -5.063190809670852
O 8.52372178619024 -5.495897546525827 6.705859270297008
H 7.9075180227609305 -6.141227981689637 6.327958611013591
H 9.078466709593572 -5.234753124195102 5.955510281529924
O 8.151598421984684 -0.17001368626357305 -4.306137867024734
H 8.26304467357737 0.03583066597518414 -3.3658319633118277
H 8.107364275807587 -1.1377034770946999 -4.330257430312503
O 8.118796211086828 -3.125123563008652 -0.5490133107810204
H 8.288033899550863 -3.3006219265717447 -1.486843938394572
H 7.268145110213333 -3.5572432395056715 -0.37981746548089446
O -7.685809650182889 1.7415621353841098 3.901997287680124
H -7.537146867740221 1.6152329526066942 4.851158850110459
H -7.048258405098864 1.1436930390289728 3.483616004858697
O -1.6886039623136635 -7.553246653800872 -1.0926206090323918
H -0.8080925603472002 -7.207019210576303 -0.8833514391452999
H -2.0488285514685245 -6.911312689352382 -1.7227959615777415
O 1.8190228634988803 4.858395569812663 -2.9212656719198744
H 1.8152781670143914 3.892742887930125 -2.840840351769421
H 2.519740748424318 5.036822805845437 -3.566339397541469
O -0.895634064003231 -6.636341453255595 -7.934896127602612
H -0.8396253459125553 -6.669284543306596 -8.901718310434456
H -1.0504392350136662 -7.557721796446497 -7.67788335260914
O 5.6219800221685405 1.6762129845193816 -1.979062609126915
H 4.980238793703832 2.291156323483679 -1.5930830209981521
H 5.420317463311248 0.8295596874166322 -1.5530668918242965
O -4.662476633970135 -2.605508952885827 -6.318254470244037
H -4.61575996475777 -2.692131826889517 -5.35426204941437
H -4.010357101183559 -3.2446679711561623 -6.642565753769476
O 0.6207667947590851 -7.921882295084056 2.6932584303533558
H -0.31467314567803983 -7.836999478010535 2.931406246007106
H 0.8420412361410532 -7.062628210670426 2.3037947166269124
O 2.765457974528431 4.116839306909967 8.418948536615243
H 2.2530135512165588 3.359495008493977 8.098327758166068
H 2.509802027671435 4.839987925319421 7.826784659948363
C 6.130070365269823 -18.137324940240884 -6.516109370549019
O 6.146986190171533 -16.98648338938672 -6.844888684064152
O 6.1131545403681145 -19.28816649109504 -6.187330057033887
O 8.348428924382779 -1.2101253628583217 12.404726622703427
H 8.253255888261808 -0.8820260302384071 13.31151230743267
H 7.447929357450339 -1.4631242266670945 12.151637608390361
O -9.632913249039756 12.01806929543687 11.552945550660645
H -9.528038070972277 12.082423649067358 12.514104783615373
H -10.58141115469209 11.861777150586937 11.430935580857586
O 13.82110462485978 7.832843445379849 -12.975520104880601
H 13.36853892690129 8.188473596638588 -12.195982523075187
H 13.415885699302311 8.3061457023114 -13.717641752761562
O 8.12274492223121 8.008005727222725 -12.685800882001086
H 8.17283572164605 8.265990959914681 -11.75311557149874
H 7.171619995704909 7.952048407827719 -12.862413726512658
O 3.549043675764671 -6.8593166976797 1.4061157770343848
H 3.1788482864748313 -6.944139178143571 2.2975908902352535
H 2.7761138041740785 -6.689616713149497 0.846881234866791
O 2.9943485360135425 -2.2289372230609517 -16.30930451768268
H 3.295519356061883 -2.203936521811544 -15.388631688177838
H 2.1307254914621585 -1.7901557565179624 -16.285055685995776
O 18.79177229837535 10.074193886864267 -2.1696411913472233
H 18.04411261211333 10.183064696345866 -1.5629126710999848
H 18.98736619889387 9.125875489588157 -2.132262216406435
O -11.412804681217589 -9.941883081667026 14.284513347753643
H -11.4424170255208 -9.73089179290702 13.339223370004877
H -11.06070838892948 -9.136866752439714 14.693094863407927
O 0.5947756630684564 -2.6009187891101915 14.226938819708176
H 0.5343163486623956 -2.4861948180299085 15.187225463716684
H -0.3141083658944994 -2.801677164899623 13.957517512558107
O 11.559665847829468 -14.412496147503038 3.835932537820871
H 12.43679162178724 -14.691454792255763 3.5329477063908232
H 11.371659834803475 -15.001222562572796 4.58226818052138
O -7.061993866072272 13.890924358180847 2.456596818263045
H -6.925080972554303 13.115028871949487 3.020696464544037
H -7.439669207814336 14.552214830894812 3.055778085691988
O 10.589261921920665 3.114710627078086 -10.635530756627633
H 10.978120730878432 3.817095525972964 -11.178127879178408
H 9.638363697516272 3.2995598196528753 -10.659723464806385
O 6.4387382614831985 -8.422806822403746 0.16138871054797033
H 6.518034661783625 -8.466682025186806 1.1261448478076101
H 7.356559187053154 -8.390329781211406 -0.1476613415168999
O 5.909309071871336 16.92237935718696 4.968815553147078
H 6.867286127841234 16.88613553951565 5.110002318871976
H 5.681525451081311 16.026554770345626 4.677997953936945
O 8.951980022990012 -4.618005018645747 12.28178548905091
H 8.137246845235481 -4.29085607382444 12.691847403727593
H 9.013492063245058 -4.119451473021428 11.453158567361129
O 10.304319185782465 15.750404249044344 3.5310419037227225
H 9.4549443855964 16.065379105253257 3.875019585651448
H 10.518543850758768 14.992116914074835 4.095018902225882
O -7.974306610992021 -11.26364212174103 -3.291784477130089
H -7.987156514887043 -11.056040655523091 -2.345368147973595
H -8.36508382911656 -10.480914870780524 -3.708429602744988
O 6.530647129169221 -2.045053896840737 -8.838303048847562
H 5.668586225494046 -2.206197000172468 -9.250433192738253
H 6.374708126220108 -2.211843691022266 -7.896588582453358
O -3.552226163112111 7.4327958353413335 7.080970755450515
H -4.110426745877735 7.703748947339214 7.825258251918637
H -4.053039860066756 6.717356520017723 6.661096760861776
O -7.303468423557954 6.87289122093821 7.6924274496342715
H -7.4953430914860455 7.784709751492975 7.958394432631103
H -7.193333998888905 6.402343347847713 8.532318544915576