194

C -5.0710522388059704 1.0783507462686561 0.47044029850746183
C -3.8153522388059704 0.1782507462686569 0.19534029850746193
C -4.11845223880597 -1.3219492537313435 0.5608402985074619
C -2.96945223880597 -2.3874492537313436 0.7034402985074619
C -2.52015223880597 0.7359507462686565 0.7384402985074618
C -2.20305223880597 0.7852507462686571 2.097440298507462
C -1.5755522388059702 1.205650746268656 -0.18965970149253808
C -0.9533522388059701 1.2695507462686564 2.508640298507462
H -2.91125223880597 0.4298507462686567 2.840840298507462
C -0.32655223880597006 1.6562507462686575 0.21554029850746192
H -1.7850522388059702 1.178550746268657 -1.2573597014925382
C 0.004447761194029898 1.6956507462686563 1.569740298507462
H -0.7158522388059702 1.2676507462686573 3.5705402985074617
H 0.3943477611940298 1.9193507462686572 -0.5551597014925382
C -1.76045223880597 -2.1592492537313435 -0.1734597014925381
C -0.5287522388059701 -1.936549253731343 0.464840298507462
C -1.8068522388059702 -2.121249253731343 -1.5681597014925381
C 0.6114477611940299 -1.614449253731343 -0.2582597014925381
H -0.4544522388059702 -1.954049253731343 1.5506402985074619
C -0.6479522388059701 -1.8270492537313432 -2.2998597014925384
H -2.74345223880597 -2.290549253731343 -2.092259701492538
C 0.5698477611940298 -1.5506492537313434 -1.6506597014925382
H 1.5072477611940298 -1.351949253731343 0.2991402985074618
H -0.7173522388059701 -1.7640492537313435 -3.3840597014925375
C 1.7791477611940298 -1.082849253731343 -2.4255597014925376
H 1.4739477611940297 -0.9102492537313429 -3.464259701492538
H 2.1252477611940295 -0.1337492537313434 -2.0010597014925384
C 1.3965477611940298 2.0964507462686566 1.997440298507462
H 1.51704776119403 1.8448507462686567 3.057640298507462
H 2.1256477611940294 1.5207507462686571 1.4165402985074618
C 3.94864776119403 -1.4275492537313434 -3.522959701492538
H 4.81734776119403 -2.087049253731343 -3.615159701492538
H 3.4305477611940303 -1.3641492537313429 -4.484459701492538
H 4.26984776119403 -0.441449253731343 -3.176459701492538
C 2.60904776119403 -3.4296492537313434 -2.8992597014925376
H 1.9825477611940296 -3.869549253731343 -2.119359701492538
H 2.06294776119403 -3.373349253731343 -3.845759701492538
H 3.5215477611940305 -4.019849253731343 -3.0234597014925377
C 3.7281477611940304 -2.060049253731343 -1.156659701492538
H 3.9048477611940298 -1.032549253731343 -0.8295597014925382
H 3.12924776119403 -2.623249253731343 -0.4404597014925382
H 4.68244776119403 -2.5769492537313434 -1.3005597014925383
C 3.1110477611940297 3.755250746268656 2.588740298507462
H 3.40124776119403 4.809350746268656 2.534540298507462
H 2.9823477611940303 3.461750746268656 3.634840298507462
H 3.86514776119403 3.1392507462686563 2.091540298507462
C 1.99744776119403 3.9574507462686572 0.40494029850746194
H 2.67914776119403 3.230350746268657 -0.04295970149253803
H 1.03214776119403 3.981150746268657 -0.10175970149253821
H 2.4399477611940297 4.958250746268657 0.368240298507462
C 0.7418477611940297 4.4992507462686575 2.475440298507462
H -0.18475223880597014 4.424250746268656 1.901240298507462
H 0.57844776119403 4.189650746268656 3.511940298507462
H 1.1210477611940297 5.524350746268658 2.4432402985074617
N 3.00114776119403 -2.025349253731343 -2.490159701492538
N 1.7831477611940298 3.586450746268657 1.862540298507462
C -3.55075223880597 -3.8435492537313434 0.6444402985074619
H -2.62515223880597 -2.2736492537313433 1.7424402985074618
H -4.67195223880597 -1.3478492537313436 1.5102402985074619
H -4.83415223880597 -1.6757492537313432 -0.1945597014925382
H -3.7169522388059697 0.17335074626865676 -0.900559701492538
H -3.9132522388059705 -4.043149253731343 -0.34225970149253815
H -4.35435223880597 -3.9354492537313432 1.3449402985074619
H -2.78115223880597 -4.545049253731343 0.8904402985074619
H -5.24235223880597 1.138950746268657 1.5249402985074618
H -5.92805223880597 0.6501507462686567 -0.006059701492538094
H -4.89895223880597 2.059650746268657 0.08004029850746197
C 1.617729487616442 -4.054656109852174 0.5145797444672029
O 2.4573301854475567 -4.750027757806366 -0.036151077280567545
O 0.45063431745954485 -3.9100879305602465 0.13297737362464512
O 1.8052381750947721 -3.3879024830743054 1.538751838257457
O 9.42892797298911 1.0421319167364507 0.3360999329770269
H 9.036154074629465 0.9170737804734244 1.213058588913432
H 8.664834431941536 1.0904151297335023 -0.25786280673991935
O -7.186151487985703 -6.152291821359101 -6.857149817516744
H -7.1269772369869315 -6.045924641167011 -5.895821680044048
H -8.138997600593019 -6.171457024652884 -7.0323038211016895
O -4.470724112103855 -1.8233322399091838 -4.366899388926358
H -4.469746071745818 -0.8555411671227491 -4.318455196581548
H -5.404534537743241 -2.0617719547811384 -4.2663681219544936
O 1.9779938539197464 8.29948098398941 7.507886999253851
H 1.5260581105046398 8.6353868513319 8.296486193400488
H 2.914133150969551 8.296417724033061 7.7580784804388365
O -0.336969797532669 4.428264439148487 6.5637293943688375
H -0.25599089941812936 3.6146347193415704 6.043713573448862
H -1.2869584993344805 4.618997395127252 6.553514197233636
O -3.325971986769811 9.297879589305555 -3.5266542646880037
H -3.737217324028953 8.459381884451595 -3.268262646330793
H -2.4249729021817035 9.234613674216552 -3.175712648661432
O -1.8152925247299891 5.545760995108824 -1.2414586252067028
H -1.8193704802430242 5.582846021127281 -0.27317383857415173
H -2.626681623816674 6.009839433282918 -1.4968815634976684
O -0.43623758299002335 -5.328693583115191 -5.76431143200109
H -0.1531423186702734 -5.165426881434993 -4.852078779470936
H -0.8659335314770045 -4.501079523108777 -6.027709047467845
O 5.223577803972345 -6.192509450434505 0.025161785268585368
H 4.844744160822193 -7.072815369755217 -0.1180650143413341
H 4.735581148887984 -5.849078738012455 0.788625310718071
O 3.5944752146021903 -5.727382097104751 -10.279597936139606
H 3.928681517946379 -5.816710664898835 -9.374449378895617
H 3.7826468638376203 -6.587377833561293 -10.684518555521464
O 1.931301006850462 -9.387936965016491 0.3431143324410586
H 2.08098136217275 -9.275619854784843 1.2938761400878567
H 1.0060376559714355 -9.127985473934903 0.21952267372344192
O -0.4885353608918801 -2.2089219541148792 11.116108213688458
H -0.1537666726666338 -1.7197243710102088 11.882647845389585
H 0.26666395795863496 -2.2391547866018238 10.509707431245415
O -7.6246950981802115 -1.0732957860323105 2.5127910707915424
H -8.48548931180303 -1.48570943867735 2.6798708655168415
H -7.023667952411211 -1.824571121942488 2.397406132425148
O -0.3962497158501699 0.45673151525226074 -9.2081428078074
H -0.5812593840481487 1.2365435001617406 -9.752782181856698
H -1.2111339661326617 0.32746076793695367 -8.699994525482168
O 6.194437790777767 -7.423396374866163 2.3628693435001025
H 5.389015325307499 -7.049592164749996 2.750854422485398
H 5.962939410021589 -8.348058612506652 2.1885988919342907
O 0.20037118109015406 5.974715679842088 -8.632008770740953
H 0.3921121002535992 6.924511576261942 -8.641523599292363
H -0.6955894668041944 5.913151774498338 -8.99591308135511
O -7.624323171008971 3.305264396923228 -0.8460939272672734
H -7.662807107908755 3.7119265262314305 -1.7247931113383705
H -6.707388359044068 3.442753291091903 -0.5645103714846951
O 11.673634384894246 -1.9823397049938034 1.4538481208380238
H 10.875537430525622 -2.4963430393730093 1.6482939502471003
H 11.865428203053227 -2.1895542243172685 0.5268965478863699
O 4.604082796069351 -9.457384106437612 3.400949713469837
H 4.9616320581061215 -9.640396691073642 4.282784321535206
H 3.6642051633629804 -9.284070853041833 3.560807450334959
O 0.8885908885841949 -7.7149450664020405 5.136606565146074
H 0.4464521788642535 -7.589431993422271 4.283537290832224
H 1.1312998419755367 -8.653054929280355 5.138654347876254
C -11.173199798635292 10.49864442764855 12.764719794871343
O -12.02310652190193 10.908468543565974 12.028159537282956
O -10.323293075368657 10.088820311731126 13.50128005245973
O 13.474025608500266 14.085356069504117 4.122162431710683
H 13.533225757976936 13.809884585278912 3.1950280506306243
H 12.821800367563537 13.479626501938732 4.505119179088339
O -3.2613262879600766 -16.32962061321392 3.021676072745717
H -2.9073751543657846 -17.16884726384029 3.35240947112841
H -3.9646589406187376 -16.108235464374353 3.650384065280736
O -7.8591883626486805 7.890332345814744 -19.699261371169264
H -7.144878637688453 7.660583200669727 -20.312404343103527
H -8.605124880725914 8.10567249460295 -20.27906243672424
O 7.553653904035211 -6.5648352359886095 6.569016352470165
H 8.291380651616494 -6.930983609553997 7.0795670074874355
H 7.981564486296328 -6.144112081003064 5.808196725523042
O -16.96317122778648 10.95781052200905 -6.671153469267702
H -17.804410919028587 10.640187922248955 -7.032261518057148
H -16.344757316470588 10.877142931617392 -7.412786072684911
O 19.863708801998285 4.274516880827481 6.680824516099374
H 19.574948591926283 3.811652956643356 5.879986276710141
H 20.78801039922881 4.501878866874872 6.49934440986817
O 7.900153033373028 -3.6066375012935428 -18.318824729410483
H 7.344923787609683 -4.044111053832859 -18.981625402597906
H 8.706217914106096 -3.3755206634347914 -18.804423699350657
O 2.8345506018746547 10.413148563935149 11.274929032480507
H 3.3325204388208762 11.212188992705045 11.504118455410483
H 3.4792607320747453 9.697403864023387 11.379906729471825
O 8.735106202123228 -7.420080565249309 10.950213796671532
H 8.808881472162046 -7.276379149862718 11.905658441664945
H 7.783858457905732 -7.356790068184066 10.776766437503513
O 3.4083518931535277 -1.070778298859749 -7.118183009526067
H 3.2188889398297595 -1.9939016720001455 -6.892540849946492
H 2.555666552548332 -0.7241029760574238 -7.4210127880765
O 0.3450831023907295 -7.3186323961419415 19.72860551718149
H 0.8226861628066118 -6.7011341074016855 19.15453362535587
H -0.28274092968122755 -6.756088756382037 20.206458614292504
O 2.1063076188656313 -8.095072624748124 -2.0052328787632714
H 2.043415176074143 -7.881693988606994 -1.0621096338062443
H 2.1969606018004493 -9.059687428481993 -2.021427365556259
O 12.39027427445806 8.813775373575858 3.409865865078613
H 12.234453271609713 7.878694748553053 3.209088882637161
H 12.369193562726952 8.851988355771697 4.377883073543737
O 4.469578004197139 13.301861628911736 3.1597364583659773
H 3.869296874648457 12.546781956241988 3.067624513816388
H 5.016188029216687 13.265184310465012 2.3604654160031977
O 9.150335501941466 -0.1518372288816967 -9.34606069285234
H 8.850352643772139 -0.3323101028661255 -8.442508157877
H 8.539075869606517 0.5295527519616314 -9.663914905006388
O 17.51789282204635 -4.8878502120346505 -0.8224412015381648
H 17.676072959025827 -5.000647338035452 0.1268865656377005
H 18.311922195510416 -5.2569055332663215 -1.2375044114795557
O 4.981968634716372 12.947210903606027 -5.781315002392789
H 5.42794768203801 12.94143358347181 -6.6415688421529815
H 4.193457208978091 12.402054384051599 -5.922793074783832
O 0.7730742753952264 -9.43325572850522 -12.55312128550731
H 0.8823414060709869 -9.348935485664137 -11.593997650254217
H -0.08325051806269013 -9.875595798811528 -12.653146555367803
O -2.210341843888339 -3.458826332476833 3.781773942419827
H -1.260255578711889 -3.5041322377756856 3.9668437145818887
H -2.3248308502061374 -4.026701774106218 3.0050039027513336
O -2.455018116406552 -8.923137754830657 4.27066780177009
H -2.270066804371745 -9.643420690484135 4.8919188473893405
H -2.4878204294930324 -9.361502385150335 3.4071156010081043