194

C -5.0710522388059704 1.0783507462686561 0.47044029850746183
C -3.8153522388059704 0.1782507462686569 0.19534029850746193
C -4.11845223880597 -1.3219492537313435 0.5608402985074619
C -2.96945223880597 -2.3874492537313436 0.7034402985074619
C -2.52015223880597 0.7359507462686565 0.7384402985074618
C -2.20305223880597 0.7852507462686571 2.097440298507462
C -1.5755522388059702 1.205650746268656 -0.18965970149253808
C -0.9533522388059701 1.2695507462686564 2.508640298507462
H -2.91125223880597 0.4298507462686567 2.840840298507462
C -0.32655223880597006 1.6562507462686575 0.21554029850746192
H -1.7850522388059702 1.178550746268657 -1.2573597014925382
C 0.004447761194029898 1.6956507462686563 1.569740298507462
H -0.7158522388059702 1.2676507462686573 3.5705402985074617
H 0.3943477611940298 1.9193507462686572 -0.5551597014925382
C -1.76045223880597 -2.1592492537313435 -0.1734597014925381
C -0.5287522388059701 -1.936549253731343 0.464840298507462
C -1.8068522388059702 -2.121249253731343 -1.5681597014925381
C 0.6114477611940299 -1.614449253731343 -0.2582597014925381
H -0.4544522388059702 -1.954049253731343 1.5506402985074619
C -0.6479522388059701 -1.8270492537313432 -2.2998597014925384
H -2.74345223880597 -2.290549253731343 -2.092259701492538
C 0.5698477611940298 -1.5506492537313434 -1.6506597014925382
H 1.5072477611940298 -1.351949253731343 0.2991402985074618
H -0.7173522388059701 -1.7640492537313435 -3.3840597014925375
C 1.7791477611940298 -1.082849253731343 -2.4255597014925376
H 1.4739477611940297 -0.9102492537313429 -3.464259701492538
H 2.1252477611940295 -0.1337492537313434 -2.0010597014925384
C 1.3965477611940298 2.0964507462686566 1.997440298507462
H 1.51704776119403 1.8448507462686567 3.057640298507462
H 2.1256477611940294 1.5207507462686571 1.4165402985074618
C 3.94864776119403 -1.4275492537313434 -3.522959701492538
H 4.81734776119403 -2.087049253731343 -3.615159701492538
H 3.4305477611940303 -1.3641492537313429 -4.484459701492538
H 4.26984776119403 -0.441449253731343 -3.176459701492538
C 2.60904776119403 -3.4296492537313434 -2.8992597014925376
H 1.9825477611940296 -3.869549253731343 -2.119359701492538
H 2.06294776119403 -3.373349253731343 -3.845759701492538
H 3.5215477611940305 -4.019849253731343 -3.0234597014925377
C 3.7281477611940304 -2.060049253731343 -1.156659701492538
H 3.9048477611940298 -1.032549253731343 -0.8295597014925382
H 3.12924776119403 -2.623249253731343 -0.4404597014925382
H 4.68244776119403 -2.5769492537313434 -1.3005597014925383
C 3.1110477611940297 3.755250746268656 2.588740298507462
H 3.40124776119403 4.809350746268656 2.534540298507462
H 2.9823477611940303 3.461750746268656 3.634840298507462
H 3.86514776119403 3.1392507462686563 2.091540298507462
C 1.99744776119403 3.9574507462686572 0.40494029850746194
H 2.67914776119403 3.230350746268657 -0.04295970149253803
H 1.03214776119403 3.981150746268657 -0.10175970149253821
H 2.4399477611940297 4.958250746268657 0.368240298507462
C 0.7418477611940297 4.4992507462686575 2.475440298507462
H -0.18475223880597014 4.424250746268656 1.901240298507462
H 0.57844776119403 4.189650746268656 3.511940298507462
H 1.1210477611940297 5.524350746268658 2.4432402985074617
N 3.00114776119403 -2.025349253731343 -2.490159701492538
N 1.7831477611940298 3.586450746268657 1.862540298507462
C -3.55075223880597 -3.8435492537313434 0.6444402985074619
H -2.62515223880597 -2.2736492537313433 1.7424402985074618
H -4.67195223880597 -1.3478492537313436 1.5102402985074619
H -4.83415223880597 -1.6757492537313432 -0.1945597014925382
H -3.7169522388059697 0.17335074626865676 -0.900559701492538
H -3.9132522388059705 -4.043149253731343 -0.34225970149253815
H -4.35435223880597 -3.9354492537313432 1.3449402985074619
H -2.78115223880597 -4.545049253731343 0.8904402985074619
H -5.24235223880597 1.138950746268657 1.5249402985074618
H -5.92805223880597 0.6501507462686567 -0.006059701492538094
H -4.89895223880597 2.059650746268657 0.08004029850746197
C 3.648107533740857 -0.7002439468624164 2.9187740602566343
O 4.053052119597759 -0.06881386315217419 3.8826679498372547
O 4.307153143951155 -0.950717331470847 1.903119871388527
O 2.5165841800036883 -1.186487156873758 2.809820744266445
O -2.4951917472652556 -0.24790718976430837 -8.027168345871017
H -2.3337204010213446 -0.13134341819034634 -7.078850230258627
H -1.9164786190269953 -0.9847795109186142 -8.274296332593185
O -3.6249454542783717 -3.111192044323489 6.181911193163156
H -3.616193772072423 -3.545975177689951 7.047852525990391
H -4.207974783908209 -3.669297535198562 5.6456677725541216
O -3.299094218117613 4.193013830051298 -3.2422241097163425
H -3.244044672470687 4.292021005109184 -2.279865297364564
H -3.632823732424855 5.050162389108003 -3.5469910752609444
O 7.6250401595654305 0.5220946248444085 6.948687975752505
H 7.566139271152342 1.4886572056547804 6.984111408976059
H 7.226876105842508 0.29446509915425045 6.095100177305852
O 1.6828350975009359 2.0003371677682527 8.764247946430334
H 2.5685178994295317 2.3875255499416843 8.696288488090588
H 1.8463665244201235 1.0456950938883365 8.793877787604837
O 4.757257388388967 1.8027924275953107 5.346575204770623
H 4.87965985991207 1.1013363499955586 6.003799947962332
H 5.63455043412889 1.9059956395328592 4.948243743243737
O 3.626748633604041 5.925529643141178 -4.642725235629487
H 2.7664024411613934 5.864082045295966 -5.084308725774322
H 3.9333268694245116 5.007363022851354 -4.598659523258408
O -6.064368996258803 4.935198019598109 6.78116169997548
H -6.317300324370922 4.461437395050738 5.974598639336124
H -5.376801629797522 5.550561925620215 6.485289558598986
O -10.426184077769875 0.22826995828342866 1.4962853624607675
H -10.51310731378161 0.8317457053937094 0.743139473146528
H -10.576450255434612 0.7942848868872794 2.2683016322035807
O 4.883524444761063 2.240023336295311 -4.355980861633579
H 5.158977356637792 2.112853241666536 -3.4356978522985484
H 5.192813125237351 3.1326525472519036 -4.571655496619356
O 9.42770107731237 6.1328203134357056 -6.040091518340706
H 10.12306076368234 6.666069075822989 -5.626463641035643
H 9.586376094068864 5.238570159441784 -5.702303351823327
O -4.079887311708296 10.53370142166602 -1.039960912533418
H -4.520612998429229 11.116634256020381 -0.40362960213296617
H -4.550767679730696 9.691492090911863 -0.9509830135824746
O 2.6165610811862416 -7.971486059200686 4.976902276152144
H 2.8557635310321965 -7.356589836335417 5.6865868398800865
H 2.7302064351255444 -8.846578719323235 5.3772265372551304
O -0.5319187930204334 -6.6872981085939545 -4.64855295273757
H -0.02097157783681114 -7.429947961011365 -5.004040641554638
H 0.14252524608469574 -6.082647869433404 -4.304336057889792
O -0.2947131708858799 6.085201255441006 -2.204406491022782
H -0.04924675405394319 5.508644591102454 -2.943524890140606
H -0.9421631195583289 6.695317825513216 -2.588500593017806
O -4.101129484652136 -6.887660979361369 0.9075946232454992
H -3.5844695922706635 -7.055894284135774 1.7099209082873446
H -4.861013572033087 -6.374973277729403 1.2217433756551639
O -1.4952089933225743 4.670383727952375 11.786755450502174
H -2.306986201026643 4.645529305118812 12.315307604615462
H -1.2600394581814989 3.737026104338823 11.674948561251151
O 2.6375840518055416 1.9102048643473521 -6.379403777981859
H 2.928407264919612 1.4245342950488697 -7.165859952050889
H 2.5272029742088367 2.820129309563101 -6.6937530518913135
O 10.259120083136876 1.2826686125957112 -7.189681576167602
H 10.30198265941058 1.2769896546645478 -6.221643402389315
H 11.185966038978659 1.2201404985472406 -7.465378426699618
O -5.893739891707207 3.27161308760296 -1.2349720822358372
H -5.985095606375964 4.113139735694941 -1.7066227907569178
H -6.602965461126982 3.2949388709561607 -0.5751107757386654
C -8.022920202680591 -7.065827180519027 -12.478254592548517
O -7.1652804905933705 -6.515186542513668 -13.106002367795865
O -8.880559914767815 -7.616467818524386 -11.850506817301167
O -12.969046101317218 8.66312557223699 11.116252517142335
H -13.91871982049149 8.506308331427574 11.004469079215998
H -12.552789420156486 7.945056096100081 10.61618397471088
O -9.10749163954678 -10.276284523544131 -16.21693242396346
H -9.001012665229336 -10.233127534253786 -17.179100319501288
H -9.660962186390481 -9.508824090491668 -16.00803823597475
O -12.209285537581046 -11.513548136363905 0.2538519058229536
H -12.160251695384602 -10.65148711469869 0.6936403028333595
H -11.758245828321812 -11.370867764589477 -0.5918238219129526
O -3.349009710051063 10.5458425178014 14.190212273548285
H -3.7860050038074116 9.695992829913004 14.029719351178482
H -4.009420583679567 11.202733374920665 13.923165790466491
O -3.2590098792357267 -19.230102743990226 -2.7002224376153388
H -2.89656832977734 -18.525502531916658 -3.258023496481391
H -2.827122079083801 -20.03336219096342 -3.027650495710924
O 15.824897913163557 -7.68083535669485 11.980436236267682
H 16.52067499403712 -7.231702581133896 12.48356779018572
H 15.37819122498735 -6.963169200324445 11.506758743621923
O 3.892150579834808 12.452120148065884 -13.737170954457872
H 3.3564874066048604 13.255698945623482 -13.657839763485436
H 3.3276574991498347 11.757028173980085 -13.366824287508786
O 6.683740796170307 11.569329223983122 -20.89793662286646
H 5.9429242582521935 11.873976682376904 -20.352640244608516
H 6.904377793697788 10.700922167425293 -20.528950927015483
O -11.754320442086309 -11.88225474019446 4.392294546573117
H -10.789877918435026 -11.946548076099372 4.460736802755691
H -12.07598664446274 -12.6472117641619 4.892627985423254
O -4.58745760312781 -6.908720433344018 -3.881862035592902
H -3.986118175915304 -7.009804345112991 -4.6349492104679095
H -4.384930142373232 -7.669461425755116 -3.316868483058291
O 7.6771818074901965 11.75067744280411 16.152436470903105
H 7.538965898640456 11.42201215229804 17.053459692722278
H 6.986846811342974 12.421218855168307 16.03941544764176
O 5.640324729401222 -11.902975372344407 7.139505518515408
H 5.91460024098445 -10.995565075944883 6.938640253638957
H 5.577580742623214 -11.919939750803415 8.106323674264823
O -3.221862513424365 9.385019708139478 5.0799191436218285
H -3.0070661456174 9.063139274170844 4.191536982890818
H -2.523893391573915 9.012050539945122 5.639110567751098
O 0.8504116919617966 -14.29492900764714 -9.3832277373237
H 0.8945317612779409 -13.549173883781124 -10.000374455382808
H 0.50940903903569 -13.902265732397625 -8.565612493295262
O 0.9010718305339047 9.052794736599362 -19.217366846072544
H 1.689824623822374 8.983108614605925 -18.658814939459422
H 0.17119180680809443 9.123396360269549 -18.583921895030116
O -7.518623184488569 1.3998238717579075 -3.290281146199936
H -7.131086400392247 0.7354923479292783 -3.879726838626143
H -8.412705988961786 1.0677582877714815 -3.119078544067075
O 4.042911840598867 9.14743422593313 -14.217260486746982
H 4.235697293001828 8.213829796461049 -14.043525356413777
H 3.0751707838415143 9.193732247055982 -14.200065004599857
O -8.146416632341557 -9.270385339460255 14.324201776255236
H -8.152633694945502 -8.914508812688316 15.225467887193243
H -7.473137621223064 -9.966715798067634 14.352151908686748
O -6.5714197011507185 -2.93484449022117 -8.084887285105324
H -6.613483251926474 -2.1408794207046253 -8.638798363694411
H -5.626014552248666 -3.1439718463809028 -8.04698217153041
O 0.9389514794953362 0.14886386397585172 -10.117482616036469
H 0.3608528794423218 0.7471276253394579 -10.6143224668494
H 0.3881513525917488 -0.632969906384885 -9.96154314051309