194

C -5.0710522388059704 1.0783507462686561 0.47044029850746183
C -3.8153522388059704 0.1782507462686569 0.19534029850746193
C -4.11845223880597 -1.3219492537313435 0.5608402985074619
C -2.96945223880597 -2.3874492537313436 0.7034402985074619
C -2.52015223880597 0.7359507462686565 0.7384402985074618
C -2.20305223880597 0.7852507462686571 2.097440298507462
C -1.5755522388059702 1.205650746268656 -0.18965970149253808
C -0.9533522388059701 1.2695507462686564 2.508640298507462
H -2.91125223880597 0.4298507462686567 2.840840298507462
C -0.32655223880597006 1.6562507462686575 0.21554029850746192
H -1.7850522388059702 1.178550746268657 -1.2573597014925382
C 0.004447761194029898 1.6956507462686563 1.569740298507462
H -0.7158522388059702 1.2676507462686573 3.5705402985074617
H 0.3943477611940298 1.9193507462686572 -0.5551597014925382
C -1.76045223880597 -2.1592492537313435 -0.1734597014925381
C -0.5287522388059701 -1.936549253731343 0.464840298507462
C -1.8068522388059702 -2.121249253731343 -1.5681597014925381
C 0.6114477611940299 -1.614449253731343 -0.2582597014925381
H -0.4544522388059702 -1.954049253731343 1.5506402985074619
C -0.6479522388059701 -1.8270492537313432 -2.2998597014925384
H -2.74345223880597 -2.290549253731343 -2.092259701492538
C 0.5698477611940298 -1.5506492537313434 -1.6506597014925382
H 1.5072477611940298 -1.351949253731343 0.2991402985074618
H -0.7173522388059701 -1.7640492537313435 -3.3840597014925375
C 1.7791477611940298 -1.082849253731343 -2.4255597014925376
H 1.4739477611940297 -0.9102492537313429 -3.464259701492538
H 2.1252477611940295 -0.1337492537313434 -2.0010597014925384
C 1.3965477611940298 2.0964507462686566 1.997440298507462
H 1.51704776119403 1.8448507462686567 3.057640298507462
H 2.1256477611940294 1.5207507462686571 1.4165402985074618
C 3.94864776119403 -1.4275492537313434 -3.522959701492538
H 4.81734776119403 -2.087049253731343 -3.615159701492538
H 3.4305477611940303 -1.3641492537313429 -4.484459701492538
H 4.26984776119403 -0.441449253731343 -3.176459701492538
C 2.60904776119403 -3.4296492537313434 -2.8992597014925376
H 1.9825477611940296 -3.869549253731343 -2.119359701492538
H 2.06294776119403 -3.373349253731343 -3.845759701492538
H 3.5215477611940305 -4.019849253731343 -3.0234597014925377
C 3.7281477611940304 -2.060049253731343 -1.156659701492538
H 3.9048477611940298 -1.032549253731343 -0.8295597014925382
H 3.12924776119403 -2.623249253731343 -0.4404597014925382
H 4.68244776119403 -2.5769492537313434 -1.3005597014925383
C 3.1110477611940297 3.755250746268656 2.588740298507462
H 3.40124776119403 4.809350746268656 2.534540298507462
H 2.9823477611940303 3.461750746268656 3.634840298507462
H 3.86514776119403 3.1392507462686563 2.091540298507462
C 1.99744776119403 3.9574507462686572 0.40494029850746194
H 2.67914776119403 3.230350746268657 -0.04295970149253803
H 1.03214776119403 3.981150746268657 -0.10175970149253821
H 2.4399477611940297 4.958250746268657 0.368240298507462
C 0.7418477611940297 4.4992507462686575 2.475440298507462
H -0.18475223880597014 4.424250746268656 1.901240298507462
H 0.57844776119403 4.189650746268656 3.511940298507462
H 1.1210477611940297 5.524350746268658 2.4432402985074617
N 3.00114776119403 -2.025349253731343 -2.490159701492538
N 1.7831477611940298 3.586450746268657 1.862540298507462
C -3.55075223880597 -3.8435492537313434 0.6444402985074619
H -2.62515223880597 -2.2736492537313433 1.7424402985074618
H -4.67195223880597 -1.3478492537313436 1.5102402985074619
H -4.83415223880597 -1.6757492537313432 -0.1945597014925382
H -3.7169522388059697 0.17335074626865676 -0.900559701492538
H -3.9132522388059705 -4.043149253731343 -0.34225970149253815
H -4.35435223880597 -3.9354492537313432 1.3449402985074619
H -2.78115223880597 -4.545049253731343 0.8904402985074619
H -5.24235223880597 1.138950746268657 1.5249402985074618
H -5.92805223880597 0.6501507462686567 -0.006059701492538094
H -4.89895223880597 2.059650746268657 0.08004029850746197
C -1.4820965824834027 3.4924465966880947 -2.156154833761716
O -1.987268141853281 2.866457191875109 -3.0752383224969284
O -0.8052272902144593 4.51954226784315 -2.2808701398708195
O -1.5695672105849787 3.195708715109339 -0.9590984845217696
O 1.4251375228561654 3.004637146741 -4.588788889676222
H 1.233070464515919 2.8101415443889284 -3.6591389218570276
H 0.6137137489573357 2.7505702073766267 -5.053550542326051
O -8.759540700673973 1.6389152504641822 0.626701682096962
H -8.830886242789825 1.8417588684050705 -0.31814308673062014
H -7.824285057359267 1.7917561881382071 0.8289353927362053
O 4.008802512114005 -3.8525138500867575 -5.783926371454134
H 4.708062295078923 -3.844114775708076 -6.454696502257109
H 3.1926723324541073 -3.9466045593798444 -6.2977749995276415
O -7.7028875064812485 -10.964693141711306 0.04396802529769728
H -7.585213120116763 -10.330715289913293 -0.679352221289747
H -8.551651909848157 -10.714395746798266 0.4388251462629409
O 1.1677127290283456 -6.422186208624031 -1.297770948281034
H 1.7448411808882827 -7.199403433678816 -1.34047331392852
H 0.2916203387842653 -6.791233309536264 -1.1100788989963375
O -4.322028898523476 11.26319749757468 3.631986574993532
H -4.040281946970524 10.470354990162699 4.112597405740513
H -4.362386372547135 10.974695937877621 2.7078112298112473
O -2.280031747804834 6.562928950638713 -6.741842253260458
H -1.9798331007840122 6.79286133085886 -7.634018934054777
H -3.2091455646570033 6.8378017352497045 -6.729415994185741
O -0.22730191372362185 5.0677952094524965 7.705006837875768
H -0.14393698993878745 5.986713628739204 7.409022741887539
H 0.35323810809404055 4.57523536726784 7.105573748002533
O -1.8879721603385855 0.6368691019883881 -5.134530522390865
H -2.429981722785806 0.5810405169692228 -4.33323397290963
H -1.7332477805369981 1.5868340548666673 -5.24673078485928
O 0.39426402925359394 -7.973068558920047 -4.361656999349572
H 0.09694172619548347 -8.152513013398714 -5.266293110037774
H 0.2561856280951784 -7.019947057641291 -4.254625680411301
O 4.5922982390233225 8.154376285960378 -2.377196336192723
H 4.868242213743482 7.260671864395762 -2.6304051168293743
H 4.001186105365946 8.011877046477993 -1.622714821183929
O -0.49146488341938666 -5.108422399436898 -6.584758234534865
H -0.024175779857503965 -5.447491487566886 -7.36298725228416
H -1.1419052884690384 -4.491540857130011 -6.952652766350603
O 3.5656415894954514 1.485366903670166 8.931942493100411
H 3.7448117851800964 2.4324776111600723 8.832711925046521
H 3.477633298885567 1.3628336511073227 9.889126951342549
O -0.2254875045638367 -7.72904167053075 4.1988087664395035
H -0.18471228059762623 -7.895634785136485 5.152512846422633
H -0.35501387100422366 -6.770933515918967 4.133896296426763
O 4.871658361895788 -9.027342390781426 -3.885104758074867
H 4.186739536950544 -9.574126847980878 -4.29848148395663
H 4.37935418205867 -8.455453683389642 -3.2772052226476243
O -4.42603298013422 -4.84481880043808 -5.656097093667771
H -3.7631553090608465 -4.924844636137298 -6.3583480571509
H -3.9190809754765983 -4.971889039031019 -4.84012236137666
O 1.1160760326038375 -6.766514022345676 10.010554118437089
H 0.6108912085994085 -7.128052808374594 9.26688392494245
H 1.2565004551530352 -5.838655181939155 9.76905691735354
O -8.647883079607745 3.6963136459881696 -6.510841867369649
H -8.081044606615228 2.9127437794494258 -6.571502947874104
H -8.4362735841448 4.07164924494624 -5.642909523298577
O -4.716893749946629 -1.828340009975311 -6.902789120561993
H -4.957331540771041 -2.3555913924152945 -6.126153423881364
H -5.00698739162204 -0.9319997337666175 -6.6761137301782565
O 6.718157740565569 -0.3865238873294694 -5.8026190070272365
H 6.762166674479742 -0.5611580122262074 -6.754739531465866
H 7.580458763102816 0.004387763611213735 -5.596252895492307
C 3.0534222285856254 19.476065171993397 3.5156077867482587
O 2.8809727937762224 18.61627197406545 4.330368553188788
O 3.2258716633950284 20.33585836992134 2.70084702030773
O -6.064220252496442 8.008229209669832 -15.262925750695617
H -6.036873729332452 8.050231668354357 -14.295219535961364
H -5.524122729999785 8.761584769035714 -15.54525890791505
O 14.530869096737861 -15.43316353048336 -0.9766941954733221
H 15.481401908556423 -15.24490822893719 -0.9728637913088392
H 14.193987133904166 -14.952641504022024 -0.20560984891789946
O 15.1807566870541 9.599834159343487 -0.20126766144108466
H 15.37615959050343 10.17718902241692 0.5520227369505513
H 15.41094505284464 8.713975818412164 0.1168993707245507
O -3.3479373685398945 11.975674294008504 8.162443592258542
H -2.4337358664481963 11.973776143042947 7.841197008625042
H -3.6942338917039024 11.113262427576169 7.888059855529821
O -10.30955193588352 6.949400813302947 6.792995807008064
H -10.570934905309857 6.018777334810665 6.725274012341966
H -9.668774374656305 6.960247261724314 7.519802807445142
O -10.506464767472835 -8.220682308051828 1.071107820551598
H -10.303302717768984 -8.400921620734152 2.001272498780101
H -9.661541556462973 -8.356220499516791 0.6164693812933337
O 0.10378336225639817 14.866551405154137 3.2018999278979257
H 0.04806299694390326 15.39684274624766 2.3927932035712303
H 0.18351452153240988 15.525039978207678 3.9082976102967395
O -14.477028370064456 -0.6133795129451647 0.20657515684571903
H -14.91934883243308 -0.31941402128342666 1.0170714586152467
H -14.163089463483924 0.20829211861379804 -0.1999467209496255
O 7.238525944769448 -10.019071933834287 14.358676049048931
H 6.974720448174904 -10.830600590309071 13.899551603406207
H 7.932133823114574 -10.310552511937242 14.969338908560086
O 14.869473261360017 12.818893005341899 4.152458532476941
H 15.239646774389591 13.090130102102961 5.005904116267715
H 14.287440720745472 13.553289918047895 3.905757821951661
O -10.13049083322651 -6.780207783700216 6.9211330506217745
H -10.664878552774834 -7.071835805717651 7.67502310817005
H -10.243097283959528 -7.486434806921286 6.2672789971621246
O -11.971917656216743 -3.9357559291311097 -2.7258706955857086
H -11.739577220912464 -3.4546921335942047 -3.5343030697805116
H -11.290990637935403 -4.621814676107429 -2.6578726384681177
O 2.5612875765224308 8.673877556984664 -6.536202686583452
H 2.0216815334736533 8.98832549260374 -5.795314590451422
H 2.1322342091525583 7.847349245368218 -6.804019979425118
O 12.12159349301593 -9.30887211038942 -12.641241607234067
H 12.174760124614057 -9.257616269411816 -11.675056580983819
H 12.418172917997417 -8.435623028718368 -12.938627939028784
O -6.496170613544519 6.9520859607846415 -7.720078991622613
H -7.043815538003807 7.057419307697401 -8.51251654729633
H -7.117831905323159 6.6392039634764135 -7.045835683636154
O -2.45327900485658 -11.616851566869212 -18.36734620499932
H -2.386817343558951 -11.812298157564184 -17.42058813946025
H -1.8208431986061808 -12.226048099138316 -18.777061325959853
O -14.157508367750435 -0.24084280460001217 15.836514443226662
H -13.260980418945103 0.08364949301003222 16.009458777342168
H -14.600449227802471 -0.17395236047146767 16.69575306391398
O -0.5373887668556114 -4.841950480726431 -10.54512432384883
H -1.4940615087873494 -4.86323061566764 -10.69774076333585
H -0.4092750140068384 -4.073205219658816 -9.969294892318027
O -22.697321953182232 1.0263859836406422 -4.5529088997572655
H -23.47025727145899 1.2720947883230842 -4.022658455191733
H -22.66449453234185 0.060316779047022706 -4.485125445457413
O -2.224318767790006 7.9128528211696265 -12.637366197105425
H -2.9092287979110165 8.361713616468025 -12.119302886318293
H -2.346240456037 8.257345250357346 -13.534819266890885