194

C -5.0710522388059704 1.0783507462686561 0.47044029850746183
C -3.8153522388059704 0.1782507462686569 0.19534029850746193
C -4.11845223880597 -1.3219492537313435 0.5608402985074619
C -2.96945223880597 -2.3874492537313436 0.7034402985074619
C -2.52015223880597 0.7359507462686565 0.7384402985074618
C -2.20305223880597 0.7852507462686571 2.097440298507462
C -1.5755522388059702 1.205650746268656 -0.18965970149253808
C -0.9533522388059701 1.2695507462686564 2.508640298507462
H -2.91125223880597 0.4298507462686567 2.840840298507462
C -0.32655223880597006 1.6562507462686575 0.21554029850746192
H -1.7850522388059702 1.178550746268657 -1.2573597014925382
C 0.004447761194029898 1.6956507462686563 1.569740298507462
H -0.7158522388059702 1.2676507462686573 3.5705402985074617
H 0.3943477611940298 1.9193507462686572 -0.5551597014925382
C -1.76045223880597 -2.1592492537313435 -0.1734597014925381
C -0.5287522388059701 -1.936549253731343 0.464840298507462
C -1.8068522388059702 -2.121249253731343 -1.5681597014925381
C 0.6114477611940299 -1.614449253731343 -0.2582597014925381
H -0.4544522388059702 -1.954049253731343 1.5506402985074619
C -0.6479522388059701 -1.8270492537313432 -2.2998597014925384
H -2.74345223880597 -2.290549253731343 -2.092259701492538
C 0.5698477611940298 -1.5506492537313434 -1.6506597014925382
H 1.5072477611940298 -1.351949253731343 0.2991402985074618
H -0.7173522388059701 -1.7640492537313435 -3.3840597014925375
C 1.7791477611940298 -1.082849253731343 -2.4255597014925376
H 1.4739477611940297 -0.9102492537313429 -3.464259701492538
H 2.1252477611940295 -0.1337492537313434 -2.0010597014925384
C 1.3965477611940298 2.0964507462686566 1.997440298507462
H 1.51704776119403 1.8448507462686567 3.057640298507462
H 2.1256477611940294 1.5207507462686571 1.4165402985074618
C 3.94864776119403 -1.4275492537313434 -3.522959701492538
H 4.81734776119403 -2.087049253731343 -3.615159701492538
H 3.4305477611940303 -1.3641492537313429 -4.484459701492538
H 4.26984776119403 -0.441449253731343 -3.176459701492538
C 2.60904776119403 -3.4296492537313434 -2.8992597014925376
H 1.9825477611940296 -3.869549253731343 -2.119359701492538
H 2.06294776119403 -3.373349253731343 -3.845759701492538
H 3.5215477611940305 -4.019849253731343 -3.0234597014925377
C 3.7281477611940304 -2.060049253731343 -1.156659701492538
H 3.9048477611940298 -1.032549253731343 -0.8295597014925382
H 3.12924776119403 -2.623249253731343 -0.4404597014925382
H 4.68244776119403 -2.5769492537313434 -1.3005597014925383
C 3.1110477611940297 3.755250746268656 2.588740298507462
H 3.40124776119403 4.809350746268656 2.534540298507462
H 2.9823477611940303 3.461750746268656 3.634840298507462
H 3.86514776119403 3.1392507462686563 2.091540298507462
C 1.99744776119403 3.9574507462686572 0.40494029850746194
H 2.67914776119403 3.230350746268657 -0.04295970149253803
H 1.03214776119403 3.981150746268657 -0.10175970149253821
H 2.4399477611940297 4.958250746268657 0.368240298507462
C 0.7418477611940297 4.4992507462686575 2.475440298507462
H -0.18475223880597014 4.424250746268656 1.901240298507462
H 0.57844776119403 4.189650746268656 3.511940298507462
H 1.1210477611940297 5.524350746268658 2.4432402985074617
N 3.00114776119403 -2.025349253731343 -2.490159701492538
N 1.7831477611940298 3.586450746268657 1.862540298507462
C -3.55075223880597 -3.8435492537313434 0.6444402985074619
H -2.62515223880597 -2.2736492537313433 1.7424402985074618
H -4.67195223880597 -1.3478492537313436 1.5102402985074619
H -4.83415223880597 -1.6757492537313432 -0.1945597014925382
H -3.7169522388059697 0.17335074626865676 -0.900559701492538
H -3.9132522388059705 -4.043149253731343 -0.34225970149253815
H -4.35435223880597 -3.9354492537313432 1.3449402985074619
H -2.78115223880597 -4.545049253731343 0.8904402985074619
H -5.24235223880597 1.138950746268657 1.5249402985074618
H -5.92805223880597 0.6501507462686567 -0.006059701492538094
H -4.89895223880597 2.059650746268657 0.08004029850746197
C -2.7755585948014208 1.5539802000244713 -3.5059260121167872
O -3.7337436301171287 1.3702082117741756 -4.24069454235714
O -2.6142597651150954 2.5407455149785427 -2.778665147745952
O -1.8188987247104071 0.7816167281405375 -3.375906995596737
O 5.4013658054406966 -0.8680074382875053 -8.31696390955686
H 5.34229613489358 -1.4839451031845523 -7.571243503585138
H 6.219111443411669 -0.37577108321679986 -8.149759284542615
O -3.015650232833368 -5.4526307112498325 7.4767156436895235
H -2.9352979453967376 -4.993414075506939 8.326204282966518
H -2.128079109804961 -5.807373953195493 7.317540651432652
O -9.171658494246337 -2.215260777948773 4.823132277601898
H -9.470516614788293 -2.4868600791452518 5.703975623649147
H -9.327678843471153 -1.2590301538125268 4.807557028269407
O 2.167579466083545 0.4455004360353483 -6.075307408108367
H 2.1896568608078715 1.3429069334138046 -6.440193039512398
H 3.0074440665043003 0.36594048381043087 -5.598589869872096
O -0.4364284595748418 4.9326032811180385 -5.163829963062411
H 0.2839246440443466 4.406076902730245 -5.541756855288986
H -1.0260682497463518 5.095987334568091 -5.915223676920018
O 8.264311586821801 1.4693059780492992 -0.8069647382440595
H 7.465822434838007 1.6495411777828892 -1.3255182107434695
H 8.794925370079872 0.9001772957546055 -1.3844623575517594
O 5.687383630751668 -2.869295560471013 0.878913291114135
H 5.721675977130486 -2.8675784502441144 1.8473080677482847
H 6.54611202055575 -3.2324309282864387 0.6149432142379005
O 9.432155350912177 5.629807738257849 -1.9622593482569934
H 8.858872256286682 5.370163400424148 -1.2254427712532476
H 8.970090866549258 5.2977425583143765 -2.746600519469839
O 1.3755065935796962 7.601529122797672 -0.17353603733924627
H 1.5073612925195827 8.448458567571588 -0.6255229960475899
H 1.9835971880946386 7.6411387776374315 0.5798687996547414
O -5.7005246498465585 2.5073533385263165 3.041353224402555
H -5.68908395518895 1.6373898588859455 3.46796781803218
H -6.638138503603864 2.663303704177254 2.8528812397583865
O -5.102461310067497 5.166776655098888 1.9348055179355543
H -4.442699759917808 4.9331112149266785 1.2646693258721742
H -5.793591454411304 5.624657991057043 1.433162467489837
O 3.2816299759403122 -4.698864739958059 -6.676238936699313
H 3.248002290825072 -3.7313197624475634 -6.635089791045868
H 2.696217286058526 -4.922185177305858 -7.415415444096673
O -3.8139093359477467 -6.558516866890184 -3.1391416396628813
H -4.756188130275563 -6.512268481741705 -3.360363513652039
H -3.592019993467392 -7.494659588441266 -3.2547438406824556
O -0.6418072684805574 -7.1949938860909075 -5.585845614218534
H -1.1977600736711396 -7.932846935019102 -5.878175416818426
H -1.1994695829545472 -6.718201728783549 -4.952881218659269
O -8.830569203887949 -2.6176852871232796 -3.3157738296766417
H -9.034023648788924 -3.086175265281912 -2.4923111492138528
H -7.930234079817318 -2.286095533249536 -3.1801020058123326
O -9.725438190808704 6.707821591174794 -0.7060970054035489
H -10.354974180869924 6.842116978885408 -1.4304011838792074
H -10.087407712208263 5.952813826897683 -0.21834370120248822
O 6.025688906971256 -9.337209081889526 -2.381136543920661
H 6.264422300832107 -9.813700386787731 -3.1904138510979267
H 6.841359444407933 -9.340984236629955 -1.8580406952806172
O -3.5556851959218374 3.101038087109597 -6.775430888126283
H -3.307618191558273 2.875879855502081 -7.68467996785387
H -2.899999553738839 3.7637825870331643 -6.511218831709231
O 1.2360281912564481 1.3120187774795502 9.692521473861767
H 2.0826150701201125 1.000974740274633 10.046794843387541
H 0.7848785023709166 1.6900167677014997 10.462289894821382
O 1.952247498755184 -4.429436748041894 3.815903293936831
H 2.642007675216455 -5.042721569341565 3.520810115717565
H 1.7546023306409249 -4.716899829895615 4.719929459704308
C -6.19121637082422 0.23242327588305622 7.975889873265926
O -5.9793987197254665 1.3955574991169613 7.788619163529814
O -6.403034021922974 -0.9307109473508487 8.163160583002039
O -2.600610681996181 14.503935993330757 17.28968969064212
H -3.106763633096561 15.330222985259292 17.284556079625172
H -2.4222397787417966 14.344548878325195 18.228700613231638
O 7.480426942815259 -5.283395501504898 5.752494781500672
H 7.504720063200981 -5.3230133899209795 6.72038301064667
H 7.889973975197166 -6.116199200892551 5.4737993009965695
O 13.44913421732349 -0.6976941559291348 -5.868507744947765
H 13.423781296867405 -1.0242366464472425 -4.956534835146942
H 14.22831708087488 -1.1292585762640792 -6.250067911302718
O 11.75975274142764 11.998061827134098 3.4832636998554234
H 11.563428510899156 11.051801152006986 3.554079574596775
H 12.717168844606414 12.0281560075278 3.336939778433119
O -5.9731020209442125 12.818836620879392 -18.00848924122282
H -6.475150456957366 12.874688783283379 -17.18157010324647
H -5.1353844633022785 13.26085621844317 -17.804014515919203
O 13.026864679354873 7.855931075181552 -1.4422719523091732
H 12.788626545733027 7.977036877194755 -0.5108518895517082
H 13.097617860715701 6.894749608806984 -1.542701630817854
O -4.850137380181023 4.682455393421774 -4.78220838441445
H -4.906612120003551 4.495976692276598 -3.8329962612927613
H -5.197646909922863 3.8799109302823123 -5.199487015215018
O -6.985069853660697 -1.5205717195663775 19.694794547505353
H -7.69920723893962 -2.050846162523995 20.079221610799515
H -7.417339592385951 -0.6888860248687543 19.449022859718227
O -1.756056420096094 16.66771172825429 7.958332514408915
H -1.8743157642625992 16.685690163229836 6.996740677768679
H -2.6118882869994167 16.36106362146702 8.293713936817133
O 10.261259886683776 -4.660394906509325 -0.5709375359536599
H 10.438995547544973 -4.8548153410331 0.3615741724971353
H 9.537500491301339 -4.01673547044732 -0.5420098284054968
O 1.3418106091164965 -9.53742276495662 1.94749654044897
H 1.930219916604183 -9.292701298188462 2.6774645174621425
H 1.9462441684297853 -9.81169757316 1.2415253326360252
O -7.582032625818183 4.3943743302959035 10.848826679549704
H -8.334362731376393 4.566246060369992 10.262800334090635
H -6.868103221757028 4.140457455866583 10.24484574342926
O -6.562439223307613 -7.248216073585307 -7.853940837205516
H -5.6233158634706335 -7.471547822283472 -7.769456507700419
H -6.9565740055735334 -7.579495329200759 -7.033042687306843
O -7.283598985960079 3.2656108578291647 -18.608980887918808
H -7.522796725894483 3.2318430252420747 -17.67057184512742
H -6.892670797037056 4.145356355119234 -18.71936637339228
O 15.076368565750242 2.051439150043284 -16.554194023468458
H 14.993630401550547 2.27071673501446 -17.49442755499883
H 14.523780247395582 2.7121443322431036 -16.110260743647864
O -0.5156309644746409 -9.603023020314566 4.837967038239775
H 0.26219532152638214 -9.271387379897686 5.311223234935751
H -1.2601309360160489 -9.159621523707537 5.271645317015053
O 7.07330075828937 -0.4657992231812289 8.829835348584437
H 7.734875921688027 0.09026167372810767 8.391563812887187
H 7.080107125891512 -1.287070488702033 8.315608622237079
O 6.201383224268132 3.601624763130051 -13.573815601665531
H 6.091187847376305 2.6541285044890284 -13.744330045842363
H 5.44307484337174 3.8285996885355873 -13.014876672086062
O -3.3218889838192664 -11.185344259753252 -12.948122084687144
H -3.9750200175621924 -11.502972719090884 -13.589604252389957
H -3.8077616541944073 -11.164904615290395 -12.109986109193452
O 8.645889941181371 -10.250163388438528 -14.164808356814113
H 9.5384709442871 -10.076275382764727 -14.499516395674194
H 8.560557704188911 -9.654498729493433 -13.405292742943217