194

C -5.0710522388059704 1.0783507462686561 0.47044029850746183
C -3.8153522388059704 0.1782507462686569 0.19534029850746193
C -4.11845223880597 -1.3219492537313435 0.5608402985074619
C -2.96945223880597 -2.3874492537313436 0.7034402985074619
C -2.52015223880597 0.7359507462686565 0.7384402985074618
C -2.20305223880597 0.7852507462686571 2.097440298507462
C -1.5755522388059702 1.205650746268656 -0.18965970149253808
C -0.9533522388059701 1.2695507462686564 2.508640298507462
H -2.91125223880597 0.4298507462686567 2.840840298507462
C -0.32655223880597006 1.6562507462686575 0.21554029850746192
H -1.7850522388059702 1.178550746268657 -1.2573597014925382
C 0.004447761194029898 1.6956507462686563 1.569740298507462
H -0.7158522388059702 1.2676507462686573 3.5705402985074617
H 0.3943477611940298 1.9193507462686572 -0.5551597014925382
C -1.76045223880597 -2.1592492537313435 -0.1734597014925381
C -0.5287522388059701 -1.936549253731343 0.464840298507462
C -1.8068522388059702 -2.121249253731343 -1.5681597014925381
C 0.6114477611940299 -1.614449253731343 -0.2582597014925381
H -0.4544522388059702 -1.954049253731343 1.5506402985074619
C -0.6479522388059701 -1.8270492537313432 -2.2998597014925384
H -2.74345223880597 -2.290549253731343 -2.092259701492538
C 0.5698477611940298 -1.5506492537313434 -1.6506597014925382
H 1.5072477611940298 -1.351949253731343 0.2991402985074618
H -0.7173522388059701 -1.7640492537313435 -3.3840597014925375
C 1.7791477611940298 -1.082849253731343 -2.4255597014925376
H 1.4739477611940297 -0.9102492537313429 -3.464259701492538
H 2.1252477611940295 -0.1337492537313434 -2.0010597014925384
C 1.3965477611940298 2.0964507462686566 1.997440298507462
H 1.51704776119403 1.8448507462686567 3.057640298507462
H 2.1256477611940294 1.5207507462686571 1.4165402985074618
C 3.94864776119403 -1.4275492537313434 -3.522959701492538
H 4.81734776119403 -2.087049253731343 -3.615159701492538
H 3.4305477611940303 -1.3641492537313429 -4.484459701492538
H 4.26984776119403 -0.441449253731343 -3.176459701492538
C 2.60904776119403 -3.4296492537313434 -2.8992597014925376
H 1.9825477611940296 -3.869549253731343 -2.119359701492538
H 2.06294776119403 -3.373349253731343 -3.845759701492538
H 3.5215477611940305 -4.019849253731343 -3.0234597014925377
C 3.7281477611940304 -2.060049253731343 -1.156659701492538
H 3.9048477611940298 -1.032549253731343 -0.8295597014925382
H 3.12924776119403 -2.623249253731343 -0.4404597014925382
H 4.68244776119403 -2.5769492537313434 -1.3005597014925383
C 3.1110477611940297 3.755250746268656 2.588740298507462
H 3.40124776119403 4.809350746268656 2.534540298507462
H 2.9823477611940303 3.461750746268656 3.634840298507462
H 3.86514776119403 3.1392507462686563 2.091540298507462
C 1.99744776119403 3.9574507462686572 0.40494029850746194
H 2.67914776119403 3.230350746268657 -0.04295970149253803
H 1.03214776119403 3.981150746268657 -0.10175970149253821
H 2.4399477611940297 4.958250746268657 0.368240298507462
C 0.7418477611940297 4.4992507462686575 2.475440298507462
H -0.18475223880597014 4.424250746268656 1.901240298507462
H 0.57844776119403 4.189650746268656 3.511940298507462
H 1.1210477611940297 5.524350746268658 2.4432402985074617
N 3.00114776119403 -2.025349253731343 -2.490159701492538
N 1.7831477611940298 3.586450746268657 1.862540298507462
C -3.55075223880597 -3.8435492537313434 0.6444402985074619
H -2.62515223880597 -2.2736492537313433 1.7424402985074618
H -4.67195223880597 -1.3478492537313436 1.5102402985074619
H -4.83415223880597 -1.6757492537313432 -0.1945597014925382
H -3.7169522388059697 0.17335074626865676 -0.900559701492538
H -3.9132522388059705 -4.043149253731343 -0.34225970149253815
H -4.35435223880597 -3.9354492537313432 1.3449402985074619
H -2.78115223880597 -4.545049253731343 0.8904402985074619
H -5.24235223880597 1.138950746268657 1.5249402985074618
H -5.92805223880597 0.6501507462686567 -0.006059701492538094
H -4.89895223880597 2.059650746268657 0.08004029850746197
C -1.8467933953795246 4.160078269893217 -1.2137339580097786
O -1.5940574991863015 4.492937835610494 -2.3613857235231306
O -1.0346808055675507 3.6760491073435704 -0.4169777999724672
O -2.95379661511294 4.255750823614585 -0.6714803103832424
O 3.297665600154978 -9.245834844525952 -3.487338684529421
H 3.786118295309069 -9.401644880693574 -4.309594456248994
H 3.666507656341043 -9.894766582282326 -2.869434904300714
O 8.15690066285638 -3.5270249978309574 2.298720888729164
H 8.658139427004555 -2.6979637286469274 2.2791129782291613
H 8.62842068837048 -4.0703111158736505 2.947928870643498
O -3.1245168490337742 2.9959140577658436 -6.523788130263185
H -3.8702737625866943 2.5575097181237263 -6.087192644978485
H -3.5447029733237843 3.62515255295986 -7.1291512290890955
O 10.06026452366789 2.1339536730825426 -2.3991187795267437
H 10.011119978169441 2.549539290166916 -1.5251389368413695
H 11.010578460208702 2.0223392523851063 -2.5521141631456037
O -1.1020365603062556 -0.7142128386221618 6.609118468011202
H -1.839355827680158 -1.212896026150486 6.9920580629028795
H -1.3954695939794008 0.20824126473244853 6.653134672454735
O -2.66642225612544 -3.862782229194056 8.701595866190637
H -2.8157482960909657 -3.488849637704806 9.582983129378816
H -3.557548446290288 -3.954535201133454 8.33222146312165
O -6.779760196949381 -0.7708358703287723 -4.280844373429126
H -6.600465667257636 -0.06981672411144205 -4.925354253228763
H -7.69634445853255 -0.6110301551011953 -4.010109504787051
O -0.07305870166516826 7.882360794466437 -1.6263954670622274
H -0.8505829592412639 7.5332928382763145 -1.1653369591242515
H 0.622085261394882 7.234536859525743 -1.436498220533684
O 9.375027064445309 -2.2613719368596144 -0.8344115615687158
H 9.524481159777523 -1.5181931979080756 -1.4379976716299332
H 10.263128169259062 -2.6133979883861294 -0.6721893960818686
O 6.885001673905993 0.9713347227862112 -3.566823837804807
H 6.566699018547303 1.8756771769736789 -3.426056291666515
H 7.799324336357177 1.0888380005730447 -3.865435614092224
O -3.3867362321475865 5.025446165321566 2.2457367053949095
H -3.2942231435411333 5.64668070660312 2.9836230991271657
H -2.4816483316430027 4.915265813968715 1.9176542053496224
O -1.4381159205481169 7.859595133622526 -5.987883745635647
H -1.7631738184080612 7.621895938311165 -5.10651900134007
H -1.8067762269614678 8.742172154187744 -6.143155525252667
O 7.064205405626234 2.427631930418035 -6.818815880648218
H 7.8434418251182585 2.987301275475562 -6.682697609868246
H 7.317659452555465 1.8480195949405038 -7.552827141432054
O 3.1548285241858105 -4.744093505346194 2.176058810210194
H 3.081159692094131 -4.195615250176698 2.971490682644581
H 2.565185104339546 -5.492548700242029 2.3524033677259806
O -6.147323021128761 3.134104807527798 -9.004091933447588
H -5.8903075995142045 3.533582088777325 -9.848679603093423
H -5.695693715431071 3.677593100846414 -8.341058458002616
O 0.5677994966424609 -5.815424994511899 -3.1675733111426654
H 0.043404337262232584 -6.1747768857876695 -2.4362435004860004
H 0.4977415451247307 -4.855398373583387 -3.056205834571971
O -8.084830594262748 2.6628571464193693 0.19104335410440587
H -9.040803009103758 2.531494292954273 0.10256793552639043
H -7.721084052321284 1.7653743331002147 0.15676512015980149
O -0.4619604016072896 -7.318902898238751 4.325988646557418
H -0.3500471754006786 -6.401787943670827 4.033853494944499
H 0.18882669993699402 -7.811873542300011 3.8040518334685
O 5.1478915103644205 0.29323922409387393 8.717674110962655
H 5.493764298431544 -0.5158358717958218 8.311796222200833
H 4.635809452971116 -0.025742624924792068 9.47595142883025
O 3.5254934742057626 -10.861421299361641 7.139042975386614
H 4.323371573877782 -11.402970201719944 7.043739873032674
H 3.171279164991926 -11.116724160891243 8.004094775189934
C 12.203690542849744 7.96154909593991 -6.219620014703322
O 11.00830670515988 8.018348958836386 -6.194134460661915
O 13.399074380539608 7.904749233043434 -6.245105568744728
O -15.554458964516025 -1.238503266007056 -0.8741896044840771
H -15.730181209272414 -1.022301389757592 -1.8022767762001763
H -16.229539393334772 -1.898429350737711 -0.655726972398019
O 2.6886954214028265 9.959246763242739 -9.088772872235154
H 2.761006234069659 9.60788885839842 -9.988931817074826
H 3.5799480914579442 10.284881912340815 -8.892323458666425
O 5.601776625321159 4.010858493092364 14.25075942789385
H 5.332943497293845 4.066903072840757 15.180036088127968
H 4.9801734089795815 3.3753154271588137 13.86519957900189
O -5.581688202181626 7.1779302561607325 10.297118312160439
H -5.52930824864357 7.233326600281107 9.33111885955943
H -4.9194944168751835 7.8151647612838815 10.604353597376798
O 8.607726658975503 -2.4596887550072983 13.473602752895411
H 9.058786288552879 -2.8191679226989677 14.252247277348792
H 7.677093129477664 -2.418554051702859 13.740419383296238
O -14.998664792259135 2.959197120245795 -9.209068266458141
H -15.014835591513307 3.009417106753993 -10.176634189331926
H -14.910051100906685 2.011915366815024 -9.025310715260872
O 5.630725251086313 -9.322796332678614 -11.786340392002558
H 6.0979189424891205 -9.934310138797848 -11.1974870345875
H 4.697723777039199 -9.438913962388416 -11.55184755672503
O -3.885724696628847 -1.774200402247057 -16.62653966799224
H -3.7692045699433123 -2.2692035545891507 -15.801698897813791
H -3.427440919023751 -0.9361677509710322 -16.46332447605448
O -5.585070478260537 -0.011110977887221832 6.426569000304708
H -4.930988031904864 0.20863863338219024 5.746235538966577
H -5.136642995308423 -0.6693733849630427 6.978443388425753
O 0.4927137728828317 21.60329183744365 5.7478111550598
H 1.1038013435945189 21.264164502673086 6.419027952103127
H 0.08323671290248136 20.805875670558805 5.379819390966454
O -13.651574459993135 -16.4027725663465 2.1786291676078524
H -13.837509269221417 -15.553702283625672 1.75028904735571
H -14.38932245651007 -16.520086086266684 2.795822310780377
O 1.3935774116762563 2.6078231459072825 -23.977977088444728
H 1.0790704433263052 3.3083713562307455 -23.386973764619967
H 1.4082277687969311 1.8176429336989095 -23.417296659349358
O -3.2269671688166968 10.259231325766331 1.665058651350873
H -3.580780823159869 11.008485066359269 2.1674549959910623
H -3.395266324252618 10.49677760239523 0.7408243168667541
O 7.747834337442516 10.478309906378884 3.0334451374754203
H 7.967703350867722 10.419196716619378 3.975321246436617
H 8.607342169285971 10.427936764818526 2.5888433179682333
O -6.831536274810325 1.6134881302163564 13.656845645911286
H -6.634022874554208 1.6479822056294793 14.6048783312026
H -7.271682214645013 2.4581501579596803 13.478577435521501
O -17.03718145667137 9.405717203901382 -12.710177157537885
H -17.456176953097575 10.279283282593656 -12.727277947951542
H -17.72602246544455 8.822599408366516 -12.357425622512306
O -4.862122809597049 11.038241458992736 12.901861833110797
H -4.82998659895798 10.930359934532408 13.864304661306777
H -5.385721412370716 10.281283059160323 12.598842974957355
O -8.530743978371598 -6.7186547786476565 -13.273128366144238
H -8.556574462970167 -5.816118582746168 -12.921377661734033
H -8.14288664987161 -7.239225137242061 -12.553729214920285
O -11.96829043761221 -7.09348861784038 11.099024944239034
H -12.11651722091981 -7.367391498088251 10.181433864398887
H -12.853991564682996 -6.8705015137511145 11.42271029950772
O 0.6419967963227067 0.075669409054405 -9.728882039440904
H 0.2760983514932215 -0.4700735450819815 -9.01666696449384
H 0.32940517578273526 0.9694685433100885 -9.523038577868805