194

C -5.0710522388059704 1.0783507462686561 0.47044029850746183
C -3.8153522388059704 0.1782507462686569 0.19534029850746193
C -4.11845223880597 -1.3219492537313435 0.5608402985074619
C -2.96945223880597 -2.3874492537313436 0.7034402985074619
C -2.52015223880597 0.7359507462686565 0.7384402985074618
C -2.20305223880597 0.7852507462686571 2.097440298507462
C -1.5755522388059702 1.205650746268656 -0.18965970149253808
C -0.9533522388059701 1.2695507462686564 2.508640298507462
H -2.91125223880597 0.4298507462686567 2.840840298507462
C -0.32655223880597006 1.6562507462686575 0.21554029850746192
H -1.7850522388059702 1.178550746268657 -1.2573597014925382
C 0.004447761194029898 1.6956507462686563 1.569740298507462
H -0.7158522388059702 1.2676507462686573 3.5705402985074617
H 0.3943477611940298 1.9193507462686572 -0.5551597014925382
C -1.76045223880597 -2.1592492537313435 -0.1734597014925381
C -0.5287522388059701 -1.936549253731343 0.464840298507462
C -1.8068522388059702 -2.121249253731343 -1.5681597014925381
C 0.6114477611940299 -1.614449253731343 -0.2582597014925381
H -0.4544522388059702 -1.954049253731343 1.5506402985074619
C -0.6479522388059701 -1.8270492537313432 -2.2998597014925384
H -2.74345223880597 -2.290549253731343 -2.092259701492538
C 0.5698477611940298 -1.5506492537313434 -1.6506597014925382
H 1.5072477611940298 -1.351949253731343 0.2991402985074618
H -0.7173522388059701 -1.7640492537313435 -3.3840597014925375
C 1.7791477611940298 -1.082849253731343 -2.4255597014925376
H 1.4739477611940297 -0.9102492537313429 -3.464259701492538
H 2.1252477611940295 -0.1337492537313434 -2.0010597014925384
C 1.3965477611940298 2.0964507462686566 1.997440298507462
H 1.51704776119403 1.8448507462686567 3.057640298507462
H 2.1256477611940294 1.5207507462686571 1.4165402985074618
C 3.94864776119403 -1.4275492537313434 -3.522959701492538
H 4.81734776119403 -2.087049253731343 -3.615159701492538
H 3.4305477611940303 -1.3641492537313429 -4.484459701492538
H 4.26984776119403 -0.441449253731343 -3.176459701492538
C 2.60904776119403 -3.4296492537313434 -2.8992597014925376
H 1.9825477611940296 -3.869549253731343 -2.119359701492538
H 2.06294776119403 -3.373349253731343 -3.845759701492538
H 3.5215477611940305 -4.019849253731343 -3.0234597014925377
C 3.7281477611940304 -2.060049253731343 -1.156659701492538
H 3.9048477611940298 -1.032549253731343 -0.8295597014925382
H 3.12924776119403 -2.623249253731343 -0.4404597014925382
H 4.68244776119403 -2.5769492537313434 -1.3005597014925383
C 3.1110477611940297 3.755250746268656 2.588740298507462
H 3.40124776119403 4.809350746268656 2.534540298507462
H 2.9823477611940303 3.461750746268656 3.634840298507462
H 3.86514776119403 3.1392507462686563 2.091540298507462
C 1.99744776119403 3.9574507462686572 0.40494029850746194
H 2.67914776119403 3.230350746268657 -0.04295970149253803
H 1.03214776119403 3.981150746268657 -0.10175970149253821
H 2.4399477611940297 4.958250746268657 0.368240298507462
C 0.7418477611940297 4.4992507462686575 2.475440298507462
H -0.18475223880597014 4.424250746268656 1.901240298507462
H 0.57844776119403 4.189650746268656 3.511940298507462
H 1.1210477611940297 5.524350746268658 2.4432402985074617
N 3.00114776119403 -2.025349253731343 -2.490159701492538
N 1.7831477611940298 3.586450746268657 1.862540298507462
C -3.55075223880597 -3.8435492537313434 0.6444402985074619
H -2.62515223880597 -2.2736492537313433 1.7424402985074618
H -4.67195223880597 -1.3478492537313436 1.5102402985074619
H -4.83415223880597 -1.6757492537313432 -0.1945597014925382
H -3.7169522388059697 0.17335074626865676 -0.900559701492538
H -3.9132522388059705 -4.043149253731343 -0.34225970149253815
H -4.35435223880597 -3.9354492537313432 1.3449402985074619
H -2.78115223880597 -4.545049253731343 0.8904402985074619
H -5.24235223880597 1.138950746268657 1.5249402985074618
H -5.92805223880597 0.6501507462686567 -0.006059701492538094
H -4.89895223880597 2.059650746268657 0.08004029850746197
C -3.165756498899837 1.2213444003075502 -3.9537755150225826
O -3.36249614840575 2.42424334851989 -3.875652987529304
O -2.0959351698822513 0.6563091334680689 -3.69912097391506
O -4.00604715119115 0.3829070407520303 -4.299582973261133
O -10.784620611827894 -0.23935419162049332 2.35150433691607
H -10.136643905311546 -0.6257200655096113 2.9596284658619005
H -10.35915966037562 -0.30516369585384284 1.483394878240559
O 0.15025368817477425 6.624780651332738 -2.700416628515256
H 0.20956621872515413 6.83128733561211 -3.645299885837372
H -0.02291971919536495 7.482351885624929 -2.2838299107788615
O 9.829428017209196 3.019946073312402 1.145225764685276
H 9.431609481755808 2.977986279263946 0.2626459408545164
H 9.6917246145127 3.9387353565405783 1.4205909226317006
O 9.448096995615602 -0.9747273910244403 3.2693365011783713
H 9.003554372124302 -1.3645591863279602 2.5016253678932605
H 8.761834004182138 -0.957152066157007 3.9532196482470767
O 3.240499128254483 -6.971632259894043 -3.3404122274400625
H 3.306508156792992 -7.688568840879781 -3.9889583737518586
H 2.390739458764718 -6.551599636827616 -3.541516787230689
O 5.021300425038602 -4.368545065416432 -9.297421911632853
H 4.146278690811245 -4.058525346564664 -9.019587256751898
H 5.599737040761726 -4.13083918871258 -8.557240216323361
O -6.443974914563406 -4.120647732341243 5.049668739934626
H -5.545870721244566 -4.482881435916967 5.015566557644751
H -6.444584950345826 -3.4318703927754637 4.368091635963967
O -9.043033616817102 -0.10331853781778344 -3.1181671595404876
H -8.185765789528974 -0.4831999276486154 -3.362603979305611
H -9.509228015986915 -0.8354956561273932 -2.6874219983296728
O 5.6066886233062325 -5.6795648917784325 3.403723961292602
H 6.106255984143543 -4.95890618172119 3.81609616271345
H 5.68430039627124 -6.4098272649538925 4.03590686466897
O -8.382951383139561 0.6164490330202816 5.009180390135494
H -8.393177792235392 1.358430958063061 4.386022624905198
H -7.450045654857515 0.35757505148681923 5.049592122634325
O 7.165604255383089 -10.871050825283609 -2.179215705855537
H 6.45967566143926 -10.531089319353272 -2.7493545938802595
H 7.659330266737504 -11.475731376292297 -2.753287131066626
O 1.9953498684125397 -6.198832341599267 -0.004617360008330795
H 1.3928965712735697 -6.004325439425903 0.728993195172895
H 2.417336513087599 -5.347138492098303 -0.19304984855028018
O -6.705579402129571 0.9928672143841621 8.548964716637592
H -6.2084506912414845 0.21533244478452773 8.253549612463155
H -6.9875064280746315 0.7630669331809539 9.447113327448019
O -4.926721842729547 -3.1220503513032396 -5.898801429523061
H -5.106215230836359 -3.2136809240811557 -6.8466164529629365
H -5.785624666414671 -3.2855469397572024 -5.481049410581638
O 0.07849836120159437 -6.817317084542578 3.3228828737614244
H -0.7751481776651445 -7.003278129250646 2.9037487264625876
H 0.7267478570898753 -7.204152391996198 2.7153526438239735
O 0.7241429393650165 -0.3913516805678858 8.836870053859318
H -0.08153351408828216 -0.4795754344380131 8.305768012341892
H 1.0622927009583945 0.4866551411091057 8.605092781196515
O -4.880791743088942 3.0169909328653337 6.440860384160459
H -5.301007747334067 2.7048720308328673 7.256315875079681
H -4.036387470578688 2.542297459026344 6.416172841530588
O 6.359539244301924 3.122572520806032 -5.223526229390949
H 6.494962430926436 3.8031780196301392 -4.547209681911256
H 5.398784521041398 2.997608886399968 -5.240742387749169
O -3.538913458465436 5.156195151590262 6.040114340158393
H -3.489126968836219 5.918589377311266 6.6361375837803775
H -2.611881929725259 4.936470141179611 5.863209255941773
O -0.8585475925655022 -1.06914967962637 5.973547227332008
H -1.422430652523528 -0.8930282775644507 5.205442740085568
H -0.003980450307978778 -1.3110020864717293 5.586010961962023
C 1.8732035268604763 -16.089699788738272 -1.900702305789368
O 1.655330613873887 -16.587499758126167 -2.9672597780167917
O 2.0910764398470656 -15.591899819350381 -0.834144833561945
O -11.722004258517948 1.3808883922046933 -13.330166099047897
H -11.634139998505756 0.7554786520154724 -14.065087785752656
H -10.808152365632807 1.5485611803295738 -13.054988886523548
O -20.008204570820745 -4.049911260223743 -12.425574974750472
H -19.936091281386354 -3.8155937008569136 -11.488098408771712
H -19.818872245501904 -3.2204569493888213 -12.889386101316797
O 4.216570174321149 -4.65729855340107 15.690327730786613
H 4.139674296901193 -4.923924179790311 14.761906944564998
H 3.5205378249044093 -5.162060756052126 16.13722372723351
O 18.884396549424775 6.501801252924711 -9.94732923526971
H 19.047826661603153 6.668460286392564 -10.887798650985568
H 17.986433894333594 6.1382119870586305 -9.926644455634301
O 1.2709331976356344 7.422151751894727 18.556167986116407
H 2.0044820321978616 7.917442586298083 18.95057951430546
H 1.0955647887147855 7.8866225582378515 17.724017317362524
O 6.722767401097683 18.25492921700353 11.725307497157889
H 5.888618437797694 17.982583422309474 12.136392198938452
H 6.488734305602723 19.052348504321373 11.226997418264688
O 12.456055994344839 6.750734554094343 16.79327911782609
H 12.331426249144654 7.0187177950493105 17.71611158695503
H 13.01408114011795 7.4494549323229755 16.419969977792075
O 9.343085615196685 -9.65334625643959 0.5591678850753281
H 10.106207250536876 -9.441703277105066 1.1175763161310552
H 8.616384777792605 -9.768439617834137 1.189740129452697
O -4.016179220686756 -7.859351796164586 7.465439837104456
H -4.581384370614485 -7.092854985807819 7.286573587889917
H -3.451433814160931 -7.56809531295894 8.19700954061784
O 5.921707903491114 -18.267990532215027 11.241132308206803
H 6.232953969516926 -18.08843261094157 12.141050191233589
H 6.736775218767969 -18.3915918791309 10.73186820883599
O -2.62709979759913 16.05911420412658 0.6602846221534384
H -2.350898362401626 16.36201275609654 1.5383122933058573
H -3.58539187589923 15.942194770585292 0.743759666494004
O 9.886907926774718 6.264990308151399 -3.5854706203731963
H 10.50334016737171 6.760665170148916 -3.025751868823531
H 9.698538447131256 5.463931341607674 -3.0738228747915795
O 0.4988799706632321 -2.427793818701137 9.78079857503425
H 0.6796496361675359 -2.7347273505352874 8.879642932556617
H -0.4020112068623889 -2.7379117369274657 9.95738823314442
O 19.062525413057376 -1.9693760667188105 2.9492079616434785
H 19.30498733997601 -2.0972503323108302 3.8786313006522453
H 19.167666920216718 -1.0163739263125766 2.8088721923136304
O 4.2156523960062025 -1.8690520234711587 21.44263737415674
H 4.420608312200162 -1.1143092248052198 20.87051523931226
H 5.013362217746164 -2.4175983599523234 21.401189800853956
O -15.084763751930216 -7.927392942248291 1.21369758903196
H -15.943674213526164 -7.517288346133131 1.3955062689849784
H -14.459482400447824 -7.402083649910272 1.735267644893761
O -5.356627407499484 21.618610258952422 0.8308618650053115
H -5.388392043647097 21.787606821800193 1.7844857565558816
H -5.352654878361602 20.65189450012381 0.7644780948151513
O -6.270936122392487 -5.971095603546762 -0.836091457610187
H -6.095697651000235 -6.8477494316449015 -0.46227746546304205
H -7.031791913001596 -5.6486785755496705 -0.33002064215635113
O 9.418463247875328 -11.329231500072352 11.714052038022594
H 9.622605724821884 -11.329750810902967 10.766796562281023
H 10.019406487565423 -11.993643334217861 12.083356900728422
O 14.187820452809389 13.102198821399364 -8.294413480972748
H 14.31962119315704 13.606444447506481 -9.111317557529876
H 13.644220515215352 13.685900696768652 -7.7441833719836675