194

C -5.0710522388059704 1.0783507462686561 0.47044029850746183
C -3.8153522388059704 0.1782507462686569 0.19534029850746193
C -4.11845223880597 -1.3219492537313435 0.5608402985074619
C -2.96945223880597 -2.3874492537313436 0.7034402985074619
C -2.52015223880597 0.7359507462686565 0.7384402985074618
C -2.20305223880597 0.7852507462686571 2.097440298507462
C -1.5755522388059702 1.205650746268656 -0.18965970149253808
C -0.9533522388059701 1.2695507462686564 2.508640298507462
H -2.91125223880597 0.4298507462686567 2.840840298507462
C -0.32655223880597006 1.6562507462686575 0.21554029850746192
H -1.7850522388059702 1.178550746268657 -1.2573597014925382
C 0.004447761194029898 1.6956507462686563 1.569740298507462
H -0.7158522388059702 1.2676507462686573 3.5705402985074617
H 0.3943477611940298 1.9193507462686572 -0.5551597014925382
C -1.76045223880597 -2.1592492537313435 -0.1734597014925381
C -0.5287522388059701 -1.936549253731343 0.464840298507462
C -1.8068522388059702 -2.121249253731343 -1.5681597014925381
C 0.6114477611940299 -1.614449253731343 -0.2582597014925381
H -0.4544522388059702 -1.954049253731343 1.5506402985074619
C -0.6479522388059701 -1.8270492537313432 -2.2998597014925384
H -2.74345223880597 -2.290549253731343 -2.092259701492538
C 0.5698477611940298 -1.5506492537313434 -1.6506597014925382
H 1.5072477611940298 -1.351949253731343 0.2991402985074618
H -0.7173522388059701 -1.7640492537313435 -3.3840597014925375
C 1.7791477611940298 -1.082849253731343 -2.4255597014925376
H 1.4739477611940297 -0.9102492537313429 -3.464259701492538
H 2.1252477611940295 -0.1337492537313434 -2.0010597014925384
C 1.3965477611940298 2.0964507462686566 1.997440298507462
H 1.51704776119403 1.8448507462686567 3.057640298507462
H 2.1256477611940294 1.5207507462686571 1.4165402985074618
C 3.94864776119403 -1.4275492537313434 -3.522959701492538
H 4.81734776119403 -2.087049253731343 -3.615159701492538
H 3.4305477611940303 -1.3641492537313429 -4.484459701492538
H 4.26984776119403 -0.441449253731343 -3.176459701492538
C 2.60904776119403 -3.4296492537313434 -2.8992597014925376
H 1.9825477611940296 -3.869549253731343 -2.119359701492538
H 2.06294776119403 -3.373349253731343 -3.845759701492538
H 3.5215477611940305 -4.019849253731343 -3.0234597014925377
C 3.7281477611940304 -2.060049253731343 -1.156659701492538
H 3.9048477611940298 -1.032549253731343 -0.8295597014925382
H 3.12924776119403 -2.623249253731343 -0.4404597014925382
H 4.68244776119403 -2.5769492537313434 -1.3005597014925383
C 3.1110477611940297 3.755250746268656 2.588740298507462
H 3.40124776119403 4.809350746268656 2.534540298507462
H 2.9823477611940303 3.461750746268656 3.634840298507462
H 3.86514776119403 3.1392507462686563 2.091540298507462
C 1.99744776119403 3.9574507462686572 0.40494029850746194
H 2.67914776119403 3.230350746268657 -0.04295970149253803
H 1.03214776119403 3.981150746268657 -0.10175970149253821
H 2.4399477611940297 4.958250746268657 0.368240298507462
C 0.7418477611940297 4.4992507462686575 2.475440298507462
H -0.18475223880597014 4.424250746268656 1.901240298507462
H 0.57844776119403 4.189650746268656 3.511940298507462
H 1.1210477611940297 5.524350746268658 2.4432402985074617
N 3.00114776119403 -2.025349253731343 -2.490159701492538
N 1.7831477611940298 3.586450746268657 1.862540298507462
C -3.55075223880597 -3.8435492537313434 0.6444402985074619
H -2.62515223880597 -2.2736492537313433 1.7424402985074618
H -4.67195223880597 -1.3478492537313436 1.5102402985074619
H -4.83415223880597 -1.6757492537313432 -0.1945597014925382
H -3.7169522388059697 0.17335074626865676 -0.900559701492538
H -3.9132522388059705 -4.043149253731343 -0.34225970149253815
H -4.35435223880597 -3.9354492537313432 1.3449402985074619
H -2.78115223880597 -4.545049253731343 0.8904402985074619
H -5.24235223880597 1.138950746268657 1.5249402985074618
H -5.92805223880597 0.6501507462686567 -0.006059701492538094
H -4.89895223880597 2.059650746268657 0.08004029850746197
C -0.03758445017064371 1.6883858175908513 -4.058326985069672
O 0.6692369352598964 1.62177407017252 -5.052179037844091
O -0.8960633745613125 0.85845790603215 -3.737601148734565
O -0.0037762752202770145 2.596044535569253 -3.2194819198852063
O -7.403912619361275 1.9849494748181975 4.038797468380029
H -7.902848768531449 1.71004722196525 4.822671710416094
H -6.512829075640806 1.6377081278618566 4.1948599858995
O -8.066177232818697 -3.0888495960492177 -8.762938120576624
H -7.102673803396577 -2.999798831081635 -8.814884820669128
H -8.279166782934986 -3.7341961766601726 -9.453680610029105
O -0.5315580259449626 -10.515729716195619 -0.0649570444089913
H 0.1513819287739372 -11.173716634870173 0.13407458624732627
H -0.9118601128437497 -10.303896124104863 0.8007558388625662
O 0.021088827818956934 4.4404008038921745 -6.833880848057425
H -0.08518280095209363 4.895568927799967 -5.985060680532754
H -0.24464934439366126 5.102636558008924 -7.489463774999941
O -8.52290729510559 3.654189022273444 7.018122634426054
H -8.519861118689679 3.718945334577891 6.051290333700653
H -9.380002711877562 4.026214357785301 7.2749232196780484
O -0.710859261958332 -5.474876042212578 -4.847605895223527
H 0.15297826467775089 -5.134489933104001 -4.5703165495912454
H -0.5083140758448592 -6.02902501686862 -5.616277675484723
O 4.134972024797296 8.231322311203801 1.9040056494664195
H 3.733325018528162 9.099871466065402 2.056548774005827
H 4.734196620911748 8.378516765704822 1.1568606700443413
O 8.675503336872511 -6.937450184642882 -0.6576916228928784
H 8.083118812640908 -6.646768906151469 0.051922586861615994
H 9.181714058170337 -7.660831304331803 -0.25840174621086565
O -8.283649639650353 -2.291393385186171 -2.102876558072319
H -8.918463120359922 -2.794256105450628 -1.5707973476368498
H -7.425956744755762 -2.500300141903489 -1.7032732430895878
O 6.28506008030673 1.5299725608959167 7.9849142282902115
H 6.186480363307907 1.6731076951121153 8.938204178750901
H 5.376531914875249 1.5567567692797262 7.649025670731366
O 4.374607067771021 -4.0273272251357675 1.6269890106981406
H 5.1540706909292995 -3.519108396599896 1.3565866449640418
H 4.499581816239572 -4.890223625450007 1.2041970300859837
O 0.7373320550265258 4.423448738170917 7.512242509267718
H 1.4365135998701408 4.610222826839349 6.867860662803857
H 0.26039648965527606 3.6720723817307883 7.128930649593688
O -6.928665493286058 -3.7282444045731786 -4.670353265570706
H -7.2895435200991185 -4.115156416979781 -3.858544481854377
H -7.706447650882485 -3.5980740235611113 -5.233445204362073
O 2.764690782231825 7.344672435193819 -9.747521899521827
H 2.9564487633428573 7.500574712360068 -8.810563675504023
H 2.11619648401498 6.624736396674346 -9.737072501398899
O 9.361081585471883 -4.818337833323433 3.6261076777651984
H 9.430604045687192 -3.8661257658681905 3.4604992147621743
H 8.606191001637637 -5.095439494521215 3.0854443628456263
O -1.6339526865854344 7.211404100691166 2.8603894253252715
H -2.553146646462877 7.468289741790009 2.692879460182706
H -1.1146946784405554 7.920947235868011 2.4531037705314582
O 5.3427034074428645 4.84612872181633 -1.5822625767119138
H 4.692260768114004 5.0300723578852065 -2.27656544188868
H 4.807731654874748 4.533566834549369 -0.8372308761230647
O 3.4984535567657775 -7.303947269452754 -2.170167845932115
H 3.598192648646694 -6.8767330483305695 -3.0341744892640605
H 4.327122984392406 -7.792489846566343 -2.0535699284371143
O -5.138689933719384 -1.5538205016280286 -2.694134201765497
H -4.5121078269439145 -0.9723357161259052 -3.1504648544707106
H -5.928292528627134 -1.5335253628230794 -3.255452109689191
O -10.167566742717641 -3.919554840530295 3.488182124608101
H -10.422599581199634 -4.844601625931821 3.353222675090396
H -10.73074543301497 -3.4290329517812332 2.870784372949546
C -11.3605782068942 -4.618192298646355 7.655688257613683
O -11.67454850509775 -5.692241880335824 8.080727556054018
O -11.046607908690651 -3.5441427169568884 7.230648959173347
O -14.785539015486853 7.384404171550003 -4.0699225057350645
H -14.512652359960477 6.477743135672882 -3.8638497123880033
H -15.463183108744756 7.581519541471744 -3.4059150071981215
O 15.707973697493225 -7.246744453566554 10.375324988976228
H 15.074170725526784 -7.51379060057136 9.692721513306495
H 15.149958499166233 -6.977236218472407 11.120272164252789
O -1.0253774603639556 -18.797251361283305 2.986355718009538
H -1.7270813473513478 -19.1534038208222 2.4209050681282434
H -1.0288558990685086 -17.847614494989262 2.793639172431818
O -8.909323517796352 2.1969000741988074 -7.066308984838115
H -8.5543327407321 3.0894162495546196 -6.93838798645414
H -9.626267530242494 2.1349330741706467 -6.417376539798468
O -1.6160566566331838 13.950199582201734 -0.3906285310470512
H -0.9391895435664805 14.520295818061928 -0.7853544486237722
H -1.142955050703323 13.12820657390915 -0.19197227243762738
O -18.73851068747801 5.108275689575626 2.465692906914326
H -18.357828378121166 5.3743093535974085 1.6152374843024841
H -18.67200151201426 5.906033659173088 3.0116972071014816
O -10.392164586282561 -9.938478535386919 7.800078916048168
H -10.46557239802064 -10.622809759913807 7.117972307655199
H -11.30833662096694 -9.781862744789382 8.074053807776936
O -2.951244649710008 8.500868435524993 10.268963385338887
H -2.8411857519481756 9.33748891016679 10.745325198810102
H -3.865745114210408 8.242331090657846 10.458196802148919
O 18.323348706360676 -2.35174577863454 -15.067330513213994
H 18.85987373361101 -1.5706477089548958 -15.269800406227164
H 18.51042831533358 -2.5284556233462974 -14.133126683748234
O -13.571229504319183 8.125649475683632 -6.6569243515853405
H -13.707870623687338 9.08320512943361 -6.715094200899822
H -13.29238821040475 7.984300801771994 -5.739738421966081
O -1.3902613354863904 -3.2782294977600346 16.775286473332688
H -1.1826586260898502 -2.443574927933539 16.328945548680956
H -1.2252439973027647 -3.9525330775217022 16.09923477063578
O 12.390910706815735 3.302531968050496 -10.16048486075844
H 12.04296575944889 2.5200783676788445 -10.61399123752433
H 12.922571673590468 2.93695526726963 -9.437537949461124
O 4.766880901682272 -3.6637847039017046 12.277868419610838
H 4.610480260286891 -3.9625594256326995 13.186295555888526
H 5.098572947162231 -4.453886314845368 11.82545071919501
O -9.56250149833882 4.793732528334562 -11.316324124512903
H -8.999575487809242 4.319083755125028 -10.686411268905132
H -8.947835395482043 5.084181291553067 -12.006821801731084
O 8.537654989883006 4.3706067514614215 -7.123994809640405
H 9.403149099746923 3.994757131983199 -6.903485475985478
H 8.723159266370708 4.966175757240977 -7.865511948390093
O -4.859821956538938 5.710352702618062 8.586117906971836
H -5.4339217899310315 5.25648038084794 7.950998505811574
H -4.402146680986823 4.989686469465589 9.044523259080778
O 5.521364172516486 22.848859981607845 2.850587079645517
H 5.428239909009909 23.34661264790153 2.024428794784871
H 5.555521487094802 21.92385301573139 2.5639560707842435
O -7.287242299093013 -0.7849497430157362 6.30103417902386
H -7.558713176291045 0.038688544059829466 6.733342971204356
H -7.983825272639682 -1.4149878082861984 6.539332608676957
O 9.530722808612978 -5.540449490228328 -4.509021365543094
H 9.192919273299186 -4.926892438787771 -3.839391711885886
H 10.380125802766479 -5.836077680762308 -4.148354662360406
O -2.1273612570038885 15.908967982059966 6.983649712814985
H -2.7190980209170186 15.16065749217288 6.81380752177116
H -1.8289435904852152 15.769251247597982 7.894906029512338