194

C -5.0710522388059704 1.0783507462686561 0.47044029850746183
C -3.8153522388059704 0.1782507462686569 0.19534029850746193
C -4.11845223880597 -1.3219492537313435 0.5608402985074619
C -2.96945223880597 -2.3874492537313436 0.7034402985074619
C -2.52015223880597 0.7359507462686565 0.7384402985074618
C -2.20305223880597 0.7852507462686571 2.097440298507462
C -1.5755522388059702 1.205650746268656 -0.18965970149253808
C -0.9533522388059701 1.2695507462686564 2.508640298507462
H -2.91125223880597 0.4298507462686567 2.840840298507462
C -0.32655223880597006 1.6562507462686575 0.21554029850746192
H -1.7850522388059702 1.178550746268657 -1.2573597014925382
C 0.004447761194029898 1.6956507462686563 1.569740298507462
H -0.7158522388059702 1.2676507462686573 3.5705402985074617
H 0.3943477611940298 1.9193507462686572 -0.5551597014925382
C -1.76045223880597 -2.1592492537313435 -0.1734597014925381
C -0.5287522388059701 -1.936549253731343 0.464840298507462
C -1.8068522388059702 -2.121249253731343 -1.5681597014925381
C 0.6114477611940299 -1.614449253731343 -0.2582597014925381
H -0.4544522388059702 -1.954049253731343 1.5506402985074619
C -0.6479522388059701 -1.8270492537313432 -2.2998597014925384
H -2.74345223880597 -2.290549253731343 -2.092259701492538
C 0.5698477611940298 -1.5506492537313434 -1.6506597014925382
H 1.5072477611940298 -1.351949253731343 0.2991402985074618
H -0.7173522388059701 -1.7640492537313435 -3.3840597014925375
C 1.7791477611940298 -1.082849253731343 -2.4255597014925376
H 1.4739477611940297 -0.9102492537313429 -3.464259701492538
H 2.1252477611940295 -0.1337492537313434 -2.0010597014925384
C 1.3965477611940298 2.0964507462686566 1.997440298507462
H 1.51704776119403 1.8448507462686567 3.057640298507462
H 2.1256477611940294 1.5207507462686571 1.4165402985074618
C 3.94864776119403 -1.4275492537313434 -3.522959701492538
H 4.81734776119403 -2.087049253731343 -3.615159701492538
H 3.4305477611940303 -1.3641492537313429 -4.484459701492538
H 4.26984776119403 -0.441449253731343 -3.176459701492538
C 2.60904776119403 -3.4296492537313434 -2.8992597014925376
H 1.9825477611940296 -3.869549253731343 -2.119359701492538
H 2.06294776119403 -3.373349253731343 -3.845759701492538
H 3.5215477611940305 -4.019849253731343 -3.0234597014925377
C 3.7281477611940304 -2.060049253731343 -1.156659701492538
H 3.9048477611940298 -1.032549253731343 -0.8295597014925382
H 3.12924776119403 -2.623249253731343 -0.4404597014925382
H 4.68244776119403 -2.5769492537313434 -1.3005597014925383
C 3.1110477611940297 3.755250746268656 2.588740298507462
H 3.40124776119403 4.809350746268656 2.534540298507462
H 2.9823477611940303 3.461750746268656 3.634840298507462
H 3.86514776119403 3.1392507462686563 2.091540298507462
C 1.99744776119403 3.9574507462686572 0.40494029850746194
H 2.67914776119403 3.230350746268657 -0.04295970149253803
H 1.03214776119403 3.981150746268657 -0.10175970149253821
H 2.4399477611940297 4.958250746268657 0.368240298507462
C 0.7418477611940297 4.4992507462686575 2.475440298507462
H -0.18475223880597014 4.424250746268656 1.901240298507462
H 0.57844776119403 4.189650746268656 3.511940298507462
H 1.1210477611940297 5.524350746268658 2.4432402985074617
N 3.00114776119403 -2.025349253731343 -2.490159701492538
N 1.7831477611940298 3.586450746268657 1.862540298507462
C -3.55075223880597 -3.8435492537313434 0.6444402985074619
H -2.62515223880597 -2.2736492537313433 1.7424402985074618
H -4.67195223880597 -1.3478492537313436 1.5102402985074619
H -4.83415223880597 -1.6757492537313432 -0.1945597014925382
H -3.7169522388059697 0.17335074626865676 -0.900559701492538
H -3.9132522388059705 -4.043149253731343 -0.34225970149253815
H -4.35435223880597 -3.9354492537313432 1.3449402985074619
H -2.78115223880597 -4.545049253731343 0.8904402985074619
H -5.24235223880597 1.138950746268657 1.5249402985074618
H -5.92805223880597 0.6501507462686567 -0.006059701492538094
H -4.89895223880597 2.059650746268657 0.08004029850746197
C 2.3742492363788728 -2.1810613324073063 2.909477479808575
O 2.975704985839812 -2.1838587968365144 1.846454124358119
O 2.6334208894107167 -2.906290913180431 3.8766918167248448
O 1.4133263449816789 -1.4525576345096116 3.182530484439987
O 5.267467173601496 -2.3986461356891433 -9.336945491295246
H 5.30252132226462 -2.0610422864858005 -10.244558957791085
H 5.526156504774628 -3.328509488037115 -9.422945027325326
O 4.748681149206142 0.05157982086792101 4.499025636946061
H 4.248846465302622 0.5753792607588251 3.855001730218178
H 4.403071433032962 -0.8469360321645081 4.3886393595557145
O -3.154320958618408 -2.6754225636109568 -4.941838208546809
H -2.3801348593640483 -3.0054417864343277 -4.461535644335063
H -2.944806421741905 -2.849954225038514 -5.871679217696631
O 3.443382374653736 -2.2593897491172683 6.787727695394013
H 3.3835805594180535 -2.2244164787312575 5.821204043250401
H 4.265370883663578 -2.7448413050791034 6.953961332694077
O -9.316681752832379 3.14252770771375 -5.0897647823191186
H -8.820464961733078 2.3674682103223708 -5.393111166234492
H -8.790380205643917 3.4828717464774237 -4.350755607135845
O -6.260687537859692 9.808738030618732 0.18223048581358614
H -6.488123621352505 8.955312571440881 0.5808595997183832
H -6.872424690148308 9.888486302444768 -0.5650176750744658
O -1.2797345601366896 3.832725076253823 -6.688372205708301
H -1.0657468601069322 4.033446417106244 -7.611891325414213
H -2.2227330076462612 3.6107606669884142 -6.7095304975579575
O -6.410968461982328 3.4170956732171076 4.489713282181092
H -5.548170960493516 3.209721947810906 4.1004267985526255
H -6.461052566688186 2.841750971487418 5.267808392657559
O 7.039891725354986 -3.400414746755163 -1.8568545613409952
H 7.034885011060288 -2.4316988972348614 -1.879917358225402
H 6.85372227220284 -3.6134399694946304 -0.9300735011709942
O -5.901102822114155 -6.9519538844509166 2.3386621862256924
H -6.312057944136832 -6.1244748216228615 2.04649503344405
H -6.012984704666151 -6.941778942674713 3.301128216388041
O -2.7663375520297624 -7.487772856619514 -1.8587806969121292
H -2.0830300178312244 -7.68927707429487 -2.5156324464466477
H -2.5014176180013177 -8.000728712842646 -1.08054187597041
O 3.8993130405593983 2.405988937711642 -9.992751032288876
H 3.018843553361183 2.454069010622847 -9.590968571743662
H 4.503679784151177 2.561307269939378 -9.25141507658845
O 8.726030240248193 2.388429339620379 8.086676265266574
H 7.804210828846729 2.5205658311735455 8.354549887080072
H 8.673458885854963 2.245128847279488 7.129773362202675
O -2.7515750513784045 -5.244419523338776 -5.677178590623408
H -2.793162619254865 -6.1532067886849315 -5.343496799926375
H -2.5432956564002067 -5.349701553588336 -6.617655773777814
O -12.366554261377056 2.135270933185092 -3.055130967016462
H -12.737262563954008 2.0183953146392395 -3.9427585922569346
H -13.145413370783558 2.183063078912597 -2.480625664341827
O -1.7039128427374493 5.951628164587169 -1.340174627237655
H -2.270958059087646 5.947180712612269 -2.125927323501111
H -1.758682533509175 6.863564747904013 -1.0171670525878174
O 1.8200181823277823 1.5002320592563851 11.150618326697707
H 1.2578550557418402 1.990085420677885 11.7694750631975
H 2.4973869930013692 2.142650812624802 10.890942405697665
O 9.395683794578563 -5.234101878205301 -2.0574664948683767
H 9.532274977490626 -6.189125682505382 -2.148239502259822
H 9.299089479445126 -5.1012010120238545 -1.1024958972308778
O -0.3011376925773841 0.67429122912756 7.7205845360573955
H -0.31096367336367914 -0.27936400895031865 7.549083825014517
H -1.0927076581927868 0.8234037963937122 8.259235049952004
O -7.67222820182901 -2.0981055077669826 5.634383064185631
H -7.274953858349875 -2.222777618093574 6.509367245654037
H -8.618886150049448 -2.003657919432884 5.818449156741918
C -12.629858317358403 -2.2332192177811154 -10.606573943021653
O -12.920543371596859 -2.133939759932783 -9.449653874135418
O -12.339173263119948 -2.332498675629448 -11.763494011907886
O 11.16990139800314 0.2902095210229332 6.942502383346579
H 11.52818286745091 -0.3722122200917992 7.55225576172908
H 10.440089439569634 -0.16904944435794267 6.500441694815308
O -8.669295467301186 -3.467213378662562 -5.795541300928284
H -9.170719853602936 -4.234554674347163 -5.481330738313032
H -8.232014195651542 -3.131137752637073 -4.998797799319364
O -14.156640582121724 2.5823927341007797 -16.12167299048496
H -13.474882743054582 3.200375165369243 -15.817911043536332
H -13.674584803255783 1.9628115531850723 -16.68974281948228
O -7.085704587222142 -2.4162774548849035 10.40689187895591
H -6.323069025182534 -2.2227858707229715 9.841281267960115
H -7.085852301598672 -1.6953065983158304 11.054319825880137
O 4.190382866796519 -6.4684600395163585 6.169738592259483
H 4.545580796936989 -6.056025844096117 6.9714242050604005
H 3.3802064596859456 -6.906374955006282 6.471080027267771
O 14.873418173417036 -11.904364401624445 8.932221719631062
H 14.794663097824316 -11.229800011357625 8.2410431042556
H 13.973225050270663 -12.250841977451449 9.02478291446464
O -13.542229443446454 12.272020351439089 10.723988515390523
H -14.46568396491681 12.180349251103596 11.00290698562732
H -13.034942906690548 11.953716049001347 11.48576583519981
O -18.213777260118984 -5.635096683849958 -2.303151775085663
H -18.389800702982072 -5.888132023709341 -1.3844808757724913
H -19.089137633281283 -5.419327691580946 -2.658327651761393
O 8.924234167427331 4.758966774366574 5.423430456397079
H 9.649562604385185 4.117349114270793 5.457967301844983
H 9.019579792748832 5.173369617585159 4.552717277695617
O 6.725163215237467 -15.28096668089581 -4.804306593298706
H 6.118997073880151 -14.872365588531906 -5.440368786241352
H 7.107852172771398 -16.026249957711688 -5.291198720345529
O 11.356935382631523 -8.592248551558301 -7.225137716769664
H 12.142869711811684 -8.496896712117946 -7.783870760209438
H 11.56205254420859 -8.062304967613311 -6.440250022789115
O 7.430334455739239 -7.046528313293949 -2.2522477859045846
H 6.528393011324058 -6.703312216694943 -2.339836020169216
H 7.353122768995501 -7.73818276415555 -1.577996778983925
O -0.8227667060456385 -20.71602637247802 4.374583153344911
H -0.5226910630600177 -21.192616423326687 5.163115897635745
H -1.5166851610843874 -21.284173035199704 4.007638345921714
O -17.400785392468276 -2.164801693372985 -7.7321385250315195
H -17.635821833437877 -1.9828767316593685 -8.654433779612091
H -17.627542225372824 -3.0993043908953353 -7.612773574754871
O -2.824138729655008 20.47167886781618 -12.263992671719194
H -2.765734746260968 20.70132121371976 -13.203578072090876
H -3.3454942487376966 21.19202368597754 -11.878955387849045
O -0.7861617833750945 -17.94423505802481 -4.2097318975628655
H -0.1394093111222432 -18.635867184783734 -4.004004899408131
H -1.6326030598172814 -18.415269142323847 -4.234751914818796
O -6.833138323639486 16.725503912069776 12.12109171461022
H -7.2919225473868154 17.168274090163923 11.391407562164082
H -6.324240523424431 16.024614194021833 11.686651182004251
O 7.890826276614163 -13.400237086864376 -5.851268082341731
H 7.999720652675054 -13.092489686565598 -6.763628158940687
H 8.009022119880434 -12.599528574276727 -5.318485232763922
O -0.8516774467520544 1.1547076136808414 13.828211766900514
H -0.8309389349378057 1.2002971531791244 14.795919814255743
H -1.758140232500781 1.4111189850436754 13.601186722051962
O 2.6171238499371183 8.645739983689575 -13.909635546573444
H 2.3494977329760944 8.95078586950724 -13.029697693105323
H 2.6277921481079374 9.453827878704299 -14.444277562921592