194

C -5.0710522388059704 1.0783507462686561 0.47044029850746183
C -3.8153522388059704 0.1782507462686569 0.19534029850746193
C -4.11845223880597 -1.3219492537313435 0.5608402985074619
C -2.96945223880597 -2.3874492537313436 0.7034402985074619
C -2.52015223880597 0.7359507462686565 0.7384402985074618
C -2.20305223880597 0.7852507462686571 2.097440298507462
C -1.5755522388059702 1.205650746268656 -0.18965970149253808
C -0.9533522388059701 1.2695507462686564 2.508640298507462
H -2.91125223880597 0.4298507462686567 2.840840298507462
C -0.32655223880597006 1.6562507462686575 0.21554029850746192
H -1.7850522388059702 1.178550746268657 -1.2573597014925382
C 0.004447761194029898 1.6956507462686563 1.569740298507462
H -0.7158522388059702 1.2676507462686573 3.5705402985074617
H 0.3943477611940298 1.9193507462686572 -0.5551597014925382
C -1.76045223880597 -2.1592492537313435 -0.1734597014925381
C -0.5287522388059701 -1.936549253731343 0.464840298507462
C -1.8068522388059702 -2.121249253731343 -1.5681597014925381
C 0.6114477611940299 -1.614449253731343 -0.2582597014925381
H -0.4544522388059702 -1.954049253731343 1.5506402985074619
C -0.6479522388059701 -1.8270492537313432 -2.2998597014925384
H -2.74345223880597 -2.290549253731343 -2.092259701492538
C 0.5698477611940298 -1.5506492537313434 -1.6506597014925382
H 1.5072477611940298 -1.351949253731343 0.2991402985074618
H -0.7173522388059701 -1.7640492537313435 -3.3840597014925375
C 1.7791477611940298 -1.082849253731343 -2.4255597014925376
H 1.4739477611940297 -0.9102492537313429 -3.464259701492538
H 2.1252477611940295 -0.1337492537313434 -2.0010597014925384
C 1.3965477611940298 2.0964507462686566 1.997440298507462
H 1.51704776119403 1.8448507462686567 3.057640298507462
H 2.1256477611940294 1.5207507462686571 1.4165402985074618
C 3.94864776119403 -1.4275492537313434 -3.522959701492538
H 4.81734776119403 -2.087049253731343 -3.615159701492538
H 3.4305477611940303 -1.3641492537313429 -4.484459701492538
H 4.26984776119403 -0.441449253731343 -3.176459701492538
C 2.60904776119403 -3.4296492537313434 -2.8992597014925376
H 1.9825477611940296 -3.869549253731343 -2.119359701492538
H 2.06294776119403 -3.373349253731343 -3.845759701492538
H 3.5215477611940305 -4.019849253731343 -3.0234597014925377
C 3.7281477611940304 -2.060049253731343 -1.156659701492538
H 3.9048477611940298 -1.032549253731343 -0.8295597014925382
H 3.12924776119403 -2.623249253731343 -0.4404597014925382
H 4.68244776119403 -2.5769492537313434 -1.3005597014925383
C 3.1110477611940297 3.755250746268656 2.588740298507462
H 3.40124776119403 4.809350746268656 2.534540298507462
H 2.9823477611940303 3.461750746268656 3.634840298507462
H 3.86514776119403 3.1392507462686563 2.091540298507462
C 1.99744776119403 3.9574507462686572 0.40494029850746194
H 2.67914776119403 3.230350746268657 -0.04295970149253803
H 1.03214776119403 3.981150746268657 -0.10175970149253821
H 2.4399477611940297 4.958250746268657 0.368240298507462
C 0.7418477611940297 4.4992507462686575 2.475440298507462
H -0.18475223880597014 4.424250746268656 1.901240298507462
H 0.57844776119403 4.189650746268656 3.511940298507462
H 1.1210477611940297 5.524350746268658 2.4432402985074617
N 3.00114776119403 -2.025349253731343 -2.490159701492538
N 1.7831477611940298 3.586450746268657 1.862540298507462
C -3.55075223880597 -3.8435492537313434 0.6444402985074619
H -2.62515223880597 -2.2736492537313433 1.7424402985074618
H -4.67195223880597 -1.3478492537313436 1.5102402985074619
H -4.83415223880597 -1.6757492537313432 -0.1945597014925382
H -3.7169522388059697 0.17335074626865676 -0.900559701492538
H -3.9132522388059705 -4.043149253731343 -0.34225970149253815
H -4.35435223880597 -3.9354492537313432 1.3449402985074619
H -2.78115223880597 -4.545049253731343 0.8904402985074619
H -5.24235223880597 1.138950746268657 1.5249402985074618
H -5.92805223880597 0.6501507462686567 -0.006059701492538094
H -4.89895223880597 2.059650746268657 0.08004029850746197
C 0.9276106052230633 2.8544526006925564 -3.6119040813895453
O 0.8796072296816289 2.002768036234002 -4.4860348365970655
O 0.16215249856929725 2.9255664552066145 -2.643581732812283
O 1.7490873231761799 3.777039445971739 -3.5603492641676526
O 2.656058106297067 -6.229756121856978 1.4148564643820283
H 2.8422598907520578 -5.800694973686659 0.5662088440492146
H 1.794250943822187 -5.870814931197137 1.6744938666465918
O -6.733738083227304 1.6884404963448107 -2.753295891613349
H -6.860288704669386 2.521226690542114 -2.274318384973428
H -7.508826985753828 1.1594108908736276 -2.5117864424913083
O 4.489705753079659 2.8364477690528975 -7.303880095824138
H 3.7091341595377947 2.272042232516823 -7.198420460972967
H 5.115119432061952 2.281777582012182 -7.793941987884775
O 8.111137535345911 -2.4986320430867552 -5.00314407274138
H 8.849889339253687 -1.8818328325919835 -5.116156740420867
H 8.369484959019763 -3.2717631085058936 -5.527059055028537
O -7.057921433603457 7.041931863265273 -3.363797281870787
H -7.0131837133838095 7.160192662082378 -4.324515907042951
H -6.589278725160371 7.813191096428227 -3.010958577383847
O 6.163078941144596 1.0289710035954611 -2.202270371447958
H 6.1328812659243805 1.094195361867956 -3.1686042890971513
H 7.108207273154624 1.0766147527885828 -1.993885022887259
O -3.377015031941262 6.182506370290612 -3.0090722720914975
H -3.1779929103944573 6.040337815243141 -2.071444598656714
H -2.7791647169129634 5.574970407124248 -3.4699811552561437
O 7.557097177781703 0.016651018810233342 7.152178908494541
H 7.691083441595947 -0.11697597015263161 8.102525616717292
H 8.402278385426813 -0.24572156660466105 6.757474845979021
O -9.632481808850756 3.0203021526770533 -1.7974854450976991
H -8.991381639963123 2.9142160520813336 -1.078664417572317
H -10.435318519070496 2.5957164000148585 -1.4596362188741923
O -0.759808597447471 7.370762769068756 -2.052281311288949
H -0.8600640370558652 6.741669849390454 -1.3221044134487352
H -1.5980288027012515 7.30567555231381 -2.5340618484834305
O -5.483192475094359 -4.113360146741471 10.38176414364367
H -5.83842300783602 -3.7693070327823617 9.548453829125052
H -5.135771682610621 -4.986494479832188 10.145338312507986
O 4.581306550308035 -0.6388216873456856 4.1715714817311484
H 4.1734179367262945 -1.1486151437886312 4.887605606321816
H 3.8299040289709017 -0.3513123201057138 3.6314839342192027
O 7.451656756181309 7.017174815579967 -0.09107146804644639
H 6.590724398020391 7.158432778491552 -0.5127455358826696
H 7.652201158895787 6.087020247570068 -0.27425543691439125
O 0.8460310409471189 -4.5699756073047615 -5.08122877950841
H 0.8996018105086753 -5.510468816383023 -5.308319187113524
H -0.011927519777870987 -4.484469678616302 -4.639009616040987
O 4.8962170819148545 4.383111681721635 -1.7434530169460547
H 4.537494202342486 3.6101973473101654 -2.2048516344478655
H 4.4596087745236686 4.362920476217801 -0.8786250309064578
O -8.976023435059181 3.2088682185968236 6.481506476038222
H -9.324899143319959 2.7076705645427466 7.233872084407072
H -8.102834787030016 3.503361099118817 6.7811353674603545
O 4.840084477017673 -3.3692311582772936 -7.438114577906854
H 4.792286726310948 -4.002758015999272 -6.706454511706507
H 4.42091827701934 -2.5705869032025945 -7.083955016529308
O 1.6583987807197964 2.9662787222556646 10.489610836885777
H 1.0658950034656813 3.7330131221144347 10.484611745686443
H 1.8201890805684542 2.8016363873243533 11.430715902605458
O -2.602845205602395 -6.949782010897581 -4.72701297367814
H -2.792724186924726 -6.993179440606145 -5.676238970186182
H -2.1790734675307744 -6.085935981488904 -4.612341722762227
O 3.0396657096209054 -2.672267726101178 11.166415825610173
H 2.626394497276485 -3.403039213398354 11.650303514336441
H 2.5896721703412533 -2.6756691597550946 10.308245569101786
C 8.807349547420822 12.145768826313871 11.39784600559634
O 8.462595771476828 12.55052198789697 10.32540114945648
O 9.152103323364816 11.74101566473077 12.470290861736201
O -9.9041501786272 -7.520083499977253 22.366895438181544
H -9.553066381408598 -7.363027335017668 23.256300230882125
H -10.818440395929088 -7.8009005273269825 22.5223854378488
O 16.125643043662336 -8.03022370157715 -11.520176295569048
H 15.208539168958705 -8.249502130473019 -11.743346209590964
H 16.53374818341516 -8.88968689972801 -11.33650498525734
O -10.607101768601632 -12.5952295083906 -9.120360218661279
H -10.435596254769724 -11.831965666282114 -9.692183200846365
H -9.783008152117777 -13.10376420785143 -9.15534757373198
O -6.188847029249216 -14.672425935859199 10.725833973259322
H -6.183852532720966 -14.502970699039928 11.679892322952336
H -6.055609764367415 -13.797172724535857 10.331953799075608
O -16.16157718113941 -0.933907087196912 -15.337731211640628
H -16.139292648570606 -0.8073678605649768 -14.37728413832967
H -16.804680679956707 -0.2776233315748051 -15.645418498045986
O -1.5358394382008171 -11.373167309749332 -4.854860181422383
H -0.7163994193461432 -11.210400756678563 -4.363950351004501
H -2.2021333745948617 -10.858265865280243 -4.37539085278063
O 14.111464202929113 -11.630353197118644 3.456154998892098
H 13.906415383040722 -10.998603429911766 4.1617147553950025
H 13.738095009321125 -12.46598066485577 3.774406667745155
O -4.141397697816435 11.935809879901491 11.247155748722033
H -4.638426292670481 12.640317731636694 11.689421075919256
H -3.279486295361858 12.338102485137968 11.062138618729074
O 8.013436532258753 5.703965933512709 12.620908276457964
H 7.412976015408477 5.946341304698389 11.90002777037772
H 7.631699911134934 6.137108354115403 13.399128515122706
O 9.971244480187433 4.105682795696583 -8.333915673165318
H 9.393052690381154 3.356008896587573 -8.127395320426642
H 10.775391850462999 3.6920889098948875 -8.682124014257756
O -13.979261926159943 -4.844332803004197 -6.900091823799422
H -14.075326752853032 -4.3870456320002935 -6.051194097799597
H -13.025714232515897 -4.822579756472806 -7.0710758733851256
O 1.2547530968876859 -10.604017887344657 -6.793876958509755
H 2.0802605212691176 -10.226449577384638 -6.454838582355858
H 0.7936190006584591 -10.910554890365681 -5.998671101279224
O 9.151872783422776 -3.3689830584954876 -13.099040773695108
H 9.429167918350876 -3.3431062555623683 -14.027159923435681
H 9.62084538071363 -4.135253819338491 -12.735921277706037
O 2.6238048572775545 -16.89025068738098 -1.144694109794183
H 1.733687704964208 -16.9746245951359 -0.771143770819978
H 2.467251162788858 -16.696445946027932 -2.081119551178076
O 14.20464197098259 4.023623126423447 9.629617588254547
H 14.18441875737879 3.918764116546658 8.666516883977371
H 14.320972884864107 3.120507512868394 9.960995395792368
O -4.903344034230589 -12.953493536565897 -7.913218938171236
H -4.907953584167936 -13.246009930942837 -6.989433103699799
H -5.639155491839169 -13.438576607968717 -8.316006545962667
O 14.868642734998925 10.828172061730314 -2.7998591340466703
H 13.94277759838927 10.708980999989587 -3.059733327671019
H 15.032641738607392 10.102760915105073 -2.178694953280197
O -20.095393793929134 1.7928863676970224 -6.834360118017762
H -20.05576804113912 2.223292648575751 -7.701624547125727
H -20.468386102444057 2.4722565299067174 -6.252728907723921
O -17.351478977053528 6.485732107653834 2.051253556550746
H -17.88012950456828 7.137378536034799 1.5666373073011872
H -16.92185224784501 7.004355529226114 2.747969111455509
O 12.901046893887695 -3.4545404535798894 -10.105119038368713
H 12.487393685384127 -2.5784159861777476 -10.088861805700851
H 12.163419408076471 -4.0644789454212376 -9.953981112466199