194

C -5.0710522388059704 1.0783507462686561 0.47044029850746183
C -3.8153522388059704 0.1782507462686569 0.19534029850746193
C -4.11845223880597 -1.3219492537313435 0.5608402985074619
C -2.96945223880597 -2.3874492537313436 0.7034402985074619
C -2.52015223880597 0.7359507462686565 0.7384402985074618
C -2.20305223880597 0.7852507462686571 2.097440298507462
C -1.5755522388059702 1.205650746268656 -0.18965970149253808
C -0.9533522388059701 1.2695507462686564 2.508640298507462
H -2.91125223880597 0.4298507462686567 2.840840298507462
C -0.32655223880597006 1.6562507462686575 0.21554029850746192
H -1.7850522388059702 1.178550746268657 -1.2573597014925382
C 0.004447761194029898 1.6956507462686563 1.569740298507462
H -0.7158522388059702 1.2676507462686573 3.5705402985074617
H 0.3943477611940298 1.9193507462686572 -0.5551597014925382
C -1.76045223880597 -2.1592492537313435 -0.1734597014925381
C -0.5287522388059701 -1.936549253731343 0.464840298507462
C -1.8068522388059702 -2.121249253731343 -1.5681597014925381
C 0.6114477611940299 -1.614449253731343 -0.2582597014925381
H -0.4544522388059702 -1.954049253731343 1.5506402985074619
C -0.6479522388059701 -1.8270492537313432 -2.2998597014925384
H -2.74345223880597 -2.290549253731343 -2.092259701492538
C 0.5698477611940298 -1.5506492537313434 -1.6506597014925382
H 1.5072477611940298 -1.351949253731343 0.2991402985074618
H -0.7173522388059701 -1.7640492537313435 -3.3840597014925375
C 1.7791477611940298 -1.082849253731343 -2.4255597014925376
H 1.4739477611940297 -0.9102492537313429 -3.464259701492538
H 2.1252477611940295 -0.1337492537313434 -2.0010597014925384
C 1.3965477611940298 2.0964507462686566 1.997440298507462
H 1.51704776119403 1.8448507462686567 3.057640298507462
H 2.1256477611940294 1.5207507462686571 1.4165402985074618
C 3.94864776119403 -1.4275492537313434 -3.522959701492538
H 4.81734776119403 -2.087049253731343 -3.615159701492538
H 3.4305477611940303 -1.3641492537313429 -4.484459701492538
H 4.26984776119403 -0.441449253731343 -3.176459701492538
C 2.60904776119403 -3.4296492537313434 -2.8992597014925376
H 1.9825477611940296 -3.869549253731343 -2.119359701492538
H 2.06294776119403 -3.373349253731343 -3.845759701492538
H 3.5215477611940305 -4.019849253731343 -3.0234597014925377
C 3.7281477611940304 -2.060049253731343 -1.156659701492538
H 3.9048477611940298 -1.032549253731343 -0.8295597014925382
H 3.12924776119403 -2.623249253731343 -0.4404597014925382
H 4.68244776119403 -2.5769492537313434 -1.3005597014925383
C 3.1110477611940297 3.755250746268656 2.588740298507462
H 3.40124776119403 4.809350746268656 2.534540298507462
H 2.9823477611940303 3.461750746268656 3.634840298507462
H 3.86514776119403 3.1392507462686563 2.091540298507462
C 1.99744776119403 3.9574507462686572 0.40494029850746194
H 2.67914776119403 3.230350746268657 -0.04295970149253803
H 1.03214776119403 3.981150746268657 -0.10175970149253821
H 2.4399477611940297 4.958250746268657 0.368240298507462
C 0.7418477611940297 4.4992507462686575 2.475440298507462
H -0.18475223880597014 4.424250746268656 1.901240298507462
H 0.57844776119403 4.189650746268656 3.511940298507462
H 1.1210477611940297 5.524350746268658 2.4432402985074617
N 3.00114776119403 -2.025349253731343 -2.490159701492538
N 1.7831477611940298 3.586450746268657 1.862540298507462
C -3.55075223880597 -3.8435492537313434 0.6444402985074619
H -2.62515223880597 -2.2736492537313433 1.7424402985074618
H -4.67195223880597 -1.3478492537313436 1.5102402985074619
H -4.83415223880597 -1.6757492537313432 -0.1945597014925382
H -3.7169522388059697 0.17335074626865676 -0.900559701492538
H -3.9132522388059705 -4.043149253731343 -0.34225970149253815
H -4.35435223880597 -3.9354492537313432 1.3449402985074619
H -2.78115223880597 -4.545049253731343 0.8904402985074619
H -5.24235223880597 1.138950746268657 1.5249402985074618
H -5.92805223880597 0.6501507462686567 -0.006059701492538094
H -4.89895223880597 2.059650746268657 0.08004029850746197
C 0.7619551023805429 2.6489101394102645 -3.0069580431005347
O 0.5599038507027416 1.5018071287741497 -2.6393910787457466
O 1.8203180581831222 3.2697745459042613 -2.855212510600613
O -0.06067971193206878 3.3664177485436486 -3.5875639141667435
O -5.361044553487013 4.878495687789877 -5.090200317248878
H -5.556796242805575 5.1474220582911885 -4.180075468517715
H -4.503642371481215 5.28973200653179 -5.276501505487955
O 8.321893396471472 -2.8025059325076445 -3.0347205713214764
H 9.175098325119073 -2.4040038428556247 -2.806236893185785
H 7.763355055950994 -2.6171904563641704 -2.2648796521892534
O 3.1731516455545434 -5.568978093227063 4.852542609957108
H 3.075213191674923 -6.45111713754258 5.241394924654831
H 3.31106012480641 -5.742962702566167 3.9093180601474904
O -5.682004558170331 1.430932475290962 -6.277475177335792
H -5.972837378331041 1.037001282221282 -7.113658077629782
H -5.345218800581316 0.678129775684444 -5.768726326476813
O 3.8420246912270564 0.0835735341853554 9.452546740765857
H 3.7402905401513173 -0.5863635970228542 8.759869500174386
H 3.046837448069141 -0.019641369583446533 9.996592580984226
O 2.586321314739119 -8.040753311239182 -3.9315365606888824
H 2.605913376499354 -8.096602478039575 -2.964342485756821
H 1.648597037314084 -7.913005622848251 -4.139660686965654
O -5.290879800582353 0.850993160024011 -2.013759269134827
H -5.318813644946888 0.49584678126678283 -2.9149019364714963
H -4.8245524170844964 1.6950294602329183 -2.1091712161315304
O 8.469325698887879 2.785108787223254 6.4471933996740205
H 7.872189902580107 2.025440536948749 6.51999688305741
H 9.336393750981461 2.4250967547440707 6.687081443996465
O -3.4240786219662986 3.5973961950501114 0.9817319846798656
H -2.4972052226978443 3.567656450770447 1.2627811018083874
H -3.904760338237902 3.844171099614094 1.7861007921429726
O -3.6836225881013736 3.1401503994212554 7.812562420918952
H -3.787416433028185 3.457703461249058 6.902972267289803
H -4.401108095433318 3.5764580147923084 8.296103686828951
O -3.500061363922674 8.876162289307532 0.1651008155494178
H -4.457789799000183 8.989436988521584 0.25940057197514466
H -3.410349611437273 8.225566092377377 -0.5473866119228261
O -8.512461838466674 -0.60439697228334 3.682949347808233
H -7.603014879290558 -0.4056678664251664 3.951985270744425
H -9.004792750143634 0.1983939786942459 3.9112011971673026
O -8.033016665831687 -1.0027244996195979 1.5648402392291612
H -7.908880552446892 -0.9794887731608246 0.6041021462664374
H -7.13044232562434 -1.0127579897965946 1.9172899998676662
O 0.8419707443166002 6.148663673853956 -6.228574885813621
H 0.8582782873741088 5.895749093635705 -7.163847913358229
H 0.9625262022995207 5.310589047840914 -5.757343257966308
O 6.174180112041313 2.973002337518942 10.980733211485692
H 5.213170417266932 3.003117465179444 10.860230918828487
H 6.3784435236060775 2.0259185035386507 10.997183573460912
O 10.074293696731132 1.1954732969900057 -3.7897565785722502
H 9.662816824191761 0.3656861869111738 -4.074550349944166
H 10.586900674540056 0.9457122070720598 -3.0062928406975455
O 6.009402049575661 2.560996202601544 2.8207617659290976
H 6.030505463507589 2.8163782929992696 1.886255484128645
H 6.693298692231662 3.1124446552394094 3.2296039488642134
O 3.1115764578067737 5.84182677973711 -3.1185824727612133
H 2.5830775592072266 6.653034049321343 -3.078594513914101
H 3.693835692578526 5.979156129277934 -3.880866394654957
O 0.8541442474896623 -8.78506103497196 5.479657991116673
H 0.9640698899790929 -8.889105525697682 6.43676741744833
H 1.3322569900345917 -7.967026566303919 5.276705391263508
O 6.768908416150246 -5.527519139454245 1.6116458978474375
H 5.952183489176301 -5.937417244564997 1.9339986456037144
H 7.442106307136676 -6.211915959564375 1.743431847381391
C -11.996881614410269 1.3834624877705748 11.09778640426804
O -12.022918256585484 0.8220171225018502 12.154630504588665
O -11.970844972235053 1.9449078530392994 10.040942303947416
O -10.270735976307535 -1.147518853605453 10.921917160870303
H -10.671919722853517 -2.026253023281486 10.845463139059138
H -10.49994114412282 -0.8628551992957441 11.81935436717602
O -1.6292514172996388 3.0087248793004315 4.185247014201611
H -1.3353246950201199 3.3178753806729775 3.3151893113271846
H -2.509036019837106 2.638940230048072 4.017317533123096
O 6.094942705684943 8.080642118686198 -18.15731132392983
H 5.310770736536435 7.517844429503803 -18.071868707205446
H 6.809684754333912 7.457475374471062 -18.356732880180353
O 12.448895328192522 -11.90877885566948 13.489640077646385
H 12.514616312194583 -12.000644089698362 14.452037546439103
H 12.576500582448894 -10.960621666739005 13.33576744048945
O -1.570269304605107 18.691432455088577 10.361526202150637
H -1.1147508436219473 19.527711148120073 10.182338490001978
H -2.416812700481282 18.963806208753144 10.746414187820633
O 20.68685653004054 4.915321447559747 -6.714390028587061
H 21.59210095716037 4.740442558538922 -6.416200058528812
H 20.72641664873033 5.817392697500862 -7.066049524888413
O -6.256275013391306 -10.384598638875186 4.916597626028091
H -6.203436462430879 -10.760710967123197 5.80806549475487
H -7.143916366593896 -10.626778549635603 4.612617917480378
O 1.4982057081065556 0.9024239384459811 6.534570797547534
H 2.1295126633678754 0.46205161061050903 7.123205742157054
H 1.6591125709650165 0.4936420910471182 5.670876217836501
O 2.2698824156624955 8.606301634734812 -14.451120976392739
H 1.755602042139059 9.427073206184327 -14.479705619278192
H 2.884115996659723 8.688898266107815 -15.196008114663465
O 0.7716619480880113 4.883267555641721 8.80749495039316
H 0.7616987954905793 5.089511034183404 9.754242921106249
H 0.5502121512725211 3.940618754600309 8.770954976589616
O -16.22054530732832 4.602124312808762 13.065662372251737
H -16.242345163753004 4.997495153346657 13.950068399827432
H -15.49481746161499 5.064675225738426 12.620322399641799
O 3.7200035148147883 -15.218530740012369 0.9474285100779882
H 4.318665232429652 -15.890896343907812 0.5889651235784203
H 4.3118801690906885 -14.50631510429709 1.2327228469756024
O -16.03509888041989 9.551759738361593 9.70454814055841
H -16.534114552537954 9.15111841604147 10.432172526302962
H -16.278597864809175 10.48892434227096 9.741866957270405
O -18.303509529043772 8.755832088845565 0.8782301342988634
H -18.26635956447077 8.929501949598345 1.830819246402469
H -19.09702629794314 9.228350185107448 0.5849389300656924
O 9.089844434251294 7.481444241194861 2.3915110377431743
H 9.436041941889156 8.333583228979009 2.696427072256842
H 8.324953688698626 7.720901240738661 1.846933736492598
O -4.3484090685740195 15.058328049000966 2.2433991525491885
H -4.869531341809312 14.917944447168527 3.048191906973972
H -4.040776971001762 14.170668396798705 2.005944359598082
O -15.117722957494308 5.688915195885519 -4.648174690971015
H -15.421271198444988 6.593145649708117 -4.477314781409033
H -15.852661895793474 5.134300720303097 -4.346132500629787
O 1.2181266590579558 -1.4750956477133694 5.300811109874333
H 1.3485180398327024 -1.8566468307466666 4.419684479108046
H 1.1175597605417305 -2.2471681695246035 5.877657939012595
O -2.503184890258361 12.348715165813866 -6.327393142157778
H -3.3852952954452293 12.385107221666063 -6.7267979596448875
H -2.6623961426526557 11.992656705925686 -5.440355321908214
O 8.671221289013882 8.169156395200162 -9.619102693652033
H 8.764828562580838 9.10656049000111 -9.392213737804076
H 9.095412673989506 7.706213854088882 -8.881059458575729