194

C -5.0710522388059704 1.0783507462686561 0.47044029850746183
C -3.8153522388059704 0.1782507462686569 0.19534029850746193
C -4.11845223880597 -1.3219492537313435 0.5608402985074619
C -2.96945223880597 -2.3874492537313436 0.7034402985074619
C -2.52015223880597 0.7359507462686565 0.7384402985074618
C -2.20305223880597 0.7852507462686571 2.097440298507462
C -1.5755522388059702 1.205650746268656 -0.18965970149253808
C -0.9533522388059701 1.2695507462686564 2.508640298507462
H -2.91125223880597 0.4298507462686567 2.840840298507462
C -0.32655223880597006 1.6562507462686575 0.21554029850746192
H -1.7850522388059702 1.178550746268657 -1.2573597014925382
C 0.004447761194029898 1.6956507462686563 1.569740298507462
H -0.7158522388059702 1.2676507462686573 3.5705402985074617
H 0.3943477611940298 1.9193507462686572 -0.5551597014925382
C -1.76045223880597 -2.1592492537313435 -0.1734597014925381
C -0.5287522388059701 -1.936549253731343 0.464840298507462
C -1.8068522388059702 -2.121249253731343 -1.5681597014925381
C 0.6114477611940299 -1.614449253731343 -0.2582597014925381
H -0.4544522388059702 -1.954049253731343 1.5506402985074619
C -0.6479522388059701 -1.8270492537313432 -2.2998597014925384
H -2.74345223880597 -2.290549253731343 -2.092259701492538
C 0.5698477611940298 -1.5506492537313434 -1.6506597014925382
H 1.5072477611940298 -1.351949253731343 0.2991402985074618
H -0.7173522388059701 -1.7640492537313435 -3.3840597014925375
C 1.7791477611940298 -1.082849253731343 -2.4255597014925376
H 1.4739477611940297 -0.9102492537313429 -3.464259701492538
H 2.1252477611940295 -0.1337492537313434 -2.0010597014925384
C 1.3965477611940298 2.0964507462686566 1.997440298507462
H 1.51704776119403 1.8448507462686567 3.057640298507462
H 2.1256477611940294 1.5207507462686571 1.4165402985074618
C 3.94864776119403 -1.4275492537313434 -3.522959701492538
H 4.81734776119403 -2.087049253731343 -3.615159701492538
H 3.4305477611940303 -1.3641492537313429 -4.484459701492538
H 4.26984776119403 -0.441449253731343 -3.176459701492538
C 2.60904776119403 -3.4296492537313434 -2.8992597014925376
H 1.9825477611940296 -3.869549253731343 -2.119359701492538
H 2.06294776119403 -3.373349253731343 -3.845759701492538
H 3.5215477611940305 -4.019849253731343 -3.0234597014925377
C 3.7281477611940304 -2.060049253731343 -1.156659701492538
H 3.9048477611940298 -1.032549253731343 -0.8295597014925382
H 3.12924776119403 -2.623249253731343 -0.4404597014925382
H 4.68244776119403 -2.5769492537313434 -1.3005597014925383
C 3.1110477611940297 3.755250746268656 2.588740298507462
H 3.40124776119403 4.809350746268656 2.534540298507462
H 2.9823477611940303 3.461750746268656 3.634840298507462
H 3.86514776119403 3.1392507462686563 2.091540298507462
C 1.99744776119403 3.9574507462686572 0.40494029850746194
H 2.67914776119403 3.230350746268657 -0.04295970149253803
H 1.03214776119403 3.981150746268657 -0.10175970149253821
H 2.4399477611940297 4.958250746268657 0.368240298507462
C 0.7418477611940297 4.4992507462686575 2.475440298507462
H -0.18475223880597014 4.424250746268656 1.901240298507462
H 0.57844776119403 4.189650746268656 3.511940298507462
H 1.1210477611940297 5.524350746268658 2.4432402985074617
N 3.00114776119403 -2.025349253731343 -2.490159701492538
N 1.7831477611940298 3.586450746268657 1.862540298507462
C -3.55075223880597 -3.8435492537313434 0.6444402985074619
H -2.62515223880597 -2.2736492537313433 1.7424402985074618
H -4.67195223880597 -1.3478492537313436 1.5102402985074619
H -4.83415223880597 -1.6757492537313432 -0.1945597014925382
H -3.7169522388059697 0.17335074626865676 -0.900559701492538
H -3.9132522388059705 -4.043149253731343 -0.34225970149253815
H -4.35435223880597 -3.9354492537313432 1.3449402985074619
H -2.78115223880597 -4.545049253731343 0.8904402985074619
H -5.24235223880597 1.138950746268657 1.5249402985074618
H -5.92805223880597 0.6501507462686567 -0.006059701492538094
H -4.89895223880597 2.059650746268657 0.08004029850746197
C 1.3354490577638272 1.9600978411420655 -4.023646287256021
O 2.1073858136022876 2.1988110461654204 -3.107728633024447
O 0.9328263526562166 2.7869656471726416 -4.849973131054535
O 0.8374213533083923 0.8547001521306856 -4.265953404615686
O -0.03619331997141195 -6.981394562089362 1.2396847026547932
H 0.3880391725848913 -6.9278799604042565 0.37012715046750333
H -0.6530409370047421 -6.2341151801601455 1.2455572663018137
O 2.6623762070314076 6.40645677983098 6.357649141810873
H 3.2649645760709856 5.692143126545938 6.613794840835472
H 2.9972706474860513 6.697584123371037 5.496224433611786
O -6.876505005735553 1.5083509289612562 -5.7649019533009715
H -6.67915758240886 1.189878507907855 -6.65854431377562
H -6.361270072172178 0.9237133255641834 -5.188973329051343
O 1.9858058718634282 10.078373295987667 0.9510931759331014
H 1.5779747527793582 10.58623764284122 1.668529542729245
H 2.8222775347378164 10.538403167357856 0.7848114302263554
O -1.0099121287749526 -2.19392853795499 5.161036705851293
H -1.7906315520930849 -1.6495155444719882 5.342858133303289
H -0.4264614355679756 -1.6059120878822224 4.658260525687477
O -5.72514900050891 -2.2876716335627716 -4.139355694904925
H -5.720384406145039 -1.8380638214616603 -4.9977247710244
H -4.839817316935411 -2.6760418335126586 -4.073641600893086
O 1.6680015711078395 -3.7944400881261555 -10.173409457652209
H 1.3100102109499256 -3.6413384813468666 -11.060747860379088
H 2.008645065755617 -4.700786461427041 -10.211622092453823
O -8.258339920708902 3.7039653502046708 -1.2033677417231878
H -8.697927309039825 4.422513075170387 -0.7243902350832668
H -8.767631135172667 2.915766397430188 -0.9618582926011474
O 4.032254574826609 -0.7271993441712334 9.335454049354245
H 3.7754818289740473 -1.5034589141639811 8.815400019582327
H 4.583421725109707 -0.210704329804154 8.728486491009686
O 7.895309283096759 8.282182436897923 1.027409471841751
H 8.787134207115054 8.259327763188736 0.6491326873447232
H 7.324280654419916 8.47632527832761 0.2689921680748535
O 9.080948570185216 -1.7600312381244065 0.30945315712580257
H 9.7948541022199 -1.315606303857734 -0.17199541336988644
H 8.916488592433698 -1.1823985860879933 1.0698842054920237
O -2.708245992927286 4.388357613102533 4.335041628169536
H -3.3949710678206815 5.036981753194867 4.551057260247731
H -1.9185471780783563 4.927302998436478 4.177321630219248
O -2.67570197780164 -3.2134204019869284 7.859443559357558
H -2.4009054592554566 -3.8038677161394103 8.576957461316967
H -3.641868286818405 -3.1925936598174105 7.9305129228802835
O 3.3874437579182968 -6.7503459588704615 -4.469383146007143
H 3.288202514027983 -6.343690371348569 -3.5954553654964596
H 4.254816048545987 -6.443305130885513 -4.773279812164556
O -2.0745544179913518 -3.6078759711290984 -6.892249736265578
H -1.9997048585268176 -3.5808802952771597 -7.85798061691156
H -2.179999481823087 -2.6783571591967843 -6.639587786068364
O -4.968581522281721 3.1392954044508743 -7.455774507275913
H -5.1924064256729165 3.660148589699948 -6.669910823843589
H -4.256201813247734 3.644108375123368 -7.876061265451165
O -2.09879256036746 8.577074302161085 -5.533747767447657
H -1.5574662537930348 7.78181516286355 -5.64992043236604
H -2.1612674726749583 8.679274560701073 -4.572179290017927
O -10.140973518774924 3.2659734540880523 4.2700240013387525
H -10.760090352756288 3.840114261380906 3.7946041488062763
H -9.420164250410902 3.124850674096074 3.6379794586775107
O 1.7642724721994232 1.074123611642836 5.645797781896001
H 0.928550011690799 0.7184081926954199 5.983439406439652
H 2.157377785597989 1.5164724393086184 6.413103243586795
O 6.626244616813324 4.977009155472915 -3.704106769672774
H 6.719727000381074 5.068421916578465 -2.743965057231557
H 5.667774243686699 4.971232295931904 -3.84645534196049
C -7.694443191387318 20.14134229232598 -3.0202441354755063
O -7.062249866867306 19.615155786964003 -2.150601899089022
O -8.326636515907328 20.667528797687957 -3.889886371861989
O 0.06760936249546068 -7.0151395857148895 -13.701749658967524
H 0.29123159132322185 -7.604856841701399 -14.43740855660001
H -0.22728089598360302 -7.616223754039283 -13.001250192626598
O -18.598840618106195 7.335889434844172 11.010399872181567
H -18.722311911671625 7.117273268012751 11.94631074836862
H -17.792322644121494 7.872900205024146 10.999905366460661
O -11.685013999189561 11.16396251769706 16.028932181907095
H -11.84684708565231 10.970477955768438 15.09333550955237
H -11.822101959809306 12.120785530792197 16.09718580426268
O -16.067548919624898 -12.540349566873786 -10.931665134189164
H -16.01077876259969 -11.676493290997687 -11.366977482739957
H -16.591605577442916 -13.077409633063333 -11.544766307733214
O -12.600642302915155 -6.138200811241844 13.778908610801974
H -12.260869813979623 -6.630323127162512 14.541363618546978
H -12.314489960271274 -5.226914036488612 13.942111537427923
O -8.641761524295227 9.898431155735372 5.976427854135704
H -7.971898289584936 10.550690907439051 6.231001654812289
H -9.348222952529078 10.43068213780591 5.580722045734143
O -2.4602607806513204 -4.409712007052317 -13.692649672580739
H -2.6711791150149407 -4.946438091500736 -12.913928975923747
H -3.3270120634608604 -4.173134730742269 -14.055603320284868
O 22.215835441109444 1.6600922242164415 -6.915159261406736
H 22.339613931617983 2.0527586543450873 -7.792347563219667
H 23.105779031465467 1.6583443203752992 -6.53180655812112
O -10.793989106424899 16.081204331983983 -11.465164538142107
H -10.899131718194644 16.183345175663092 -12.423016111269568
H -10.982505550474126 15.143862262238258 -11.307642035280331
O 16.121952865345957 -7.859378968522277 3.9877156602108323
H 15.982796677443725 -7.202870333723328 3.288716858564549
H 15.637201497814448 -8.638667661319348 3.6767700230731446
O 9.651737793962376 12.711729377596948 -5.3580604641339065
H 10.020668658462721 11.989854816662977 -4.827254951356
H 10.057874278693694 13.508225872263264 -4.984418343844509
O -12.197118508156489 -0.16979742619180271 10.13818986548829
H -13.082929891471208 -0.04091362998277415 10.509261984037789
H -11.619720981076513 -0.19993544651823525 10.915792424481467
O 16.697584904238113 10.0509466306607 -0.7647886483734228
H 16.76317683040993 10.99609403699558 -0.9681637609598113
H 15.879746978515593 9.773214069047794 -1.2040695331952112
O 16.491909635108314 -9.886960501800978 -7.8716927514497606
H 16.426975190533696 -10.272129386961577 -8.758482357112754
H 16.465337281490672 -10.654386340621128 -7.28066531026415
O -15.432838663067482 1.260984417617021 -7.9529701316489865
H -15.778089542426013 2.1448986747873082 -7.75684574975509
H -14.475977310948569 1.3506606565802461 -7.829129632269446
O -5.122491344059718 9.387553663765024 18.327065143932426
H -5.41061599921759 9.561605534349061 17.418408175469434
H -4.31969122848667 8.855525745099397 18.220199749644937
O 7.395199929590563 2.0467843860908266 -1.785832157534128
H 6.9988907948916514 2.9183142407318465 -1.9353050283957147
H 8.295872128442742 2.246901457245649 -1.489682377275566
O -6.8159928620092725 -8.76492308765625 8.875853915116386
H -7.180942106940711 -9.6617055332243 8.915358988777362
H -7.555295255960425 -8.199295480893793 9.145036613420475
O -11.390927257525302 1.0724377817811548 5.718279890079399
H -11.385970380062577 0.991318210187293 4.752690742786283
H -12.098244849268456 0.4729744017098185 5.999895629455089
O 0.02794589410045134 2.7512027721730608 20.9492178171414
H 0.06279771384459032 2.079060985782185 21.646339131223677
H -0.8176845225980092 3.2000481262531366 21.09891414567059