194

C -5.0710522388059704 1.0783507462686561 0.47044029850746183
C -3.8153522388059704 0.1782507462686569 0.19534029850746193
C -4.11845223880597 -1.3219492537313435 0.5608402985074619
C -2.96945223880597 -2.3874492537313436 0.7034402985074619
C -2.52015223880597 0.7359507462686565 0.7384402985074618
C -2.20305223880597 0.7852507462686571 2.097440298507462
C -1.5755522388059702 1.205650746268656 -0.18965970149253808
C -0.9533522388059701 1.2695507462686564 2.508640298507462
H -2.91125223880597 0.4298507462686567 2.840840298507462
C -0.32655223880597006 1.6562507462686575 0.21554029850746192
H -1.7850522388059702 1.178550746268657 -1.2573597014925382
C 0.004447761194029898 1.6956507462686563 1.569740298507462
H -0.7158522388059702 1.2676507462686573 3.5705402985074617
H 0.3943477611940298 1.9193507462686572 -0.5551597014925382
C -1.76045223880597 -2.1592492537313435 -0.1734597014925381
C -0.5287522388059701 -1.936549253731343 0.464840298507462
C -1.8068522388059702 -2.121249253731343 -1.5681597014925381
C 0.6114477611940299 -1.614449253731343 -0.2582597014925381
H -0.4544522388059702 -1.954049253731343 1.5506402985074619
C -0.6479522388059701 -1.8270492537313432 -2.2998597014925384
H -2.74345223880597 -2.290549253731343 -2.092259701492538
C 0.5698477611940298 -1.5506492537313434 -1.6506597014925382
H 1.5072477611940298 -1.351949253731343 0.2991402985074618
H -0.7173522388059701 -1.7640492537313435 -3.3840597014925375
C 1.7791477611940298 -1.082849253731343 -2.4255597014925376
H 1.4739477611940297 -0.9102492537313429 -3.464259701492538
H 2.1252477611940295 -0.1337492537313434 -2.0010597014925384
C 1.3965477611940298 2.0964507462686566 1.997440298507462
H 1.51704776119403 1.8448507462686567 3.057640298507462
H 2.1256477611940294 1.5207507462686571 1.4165402985074618
C 3.94864776119403 -1.4275492537313434 -3.522959701492538
H 4.81734776119403 -2.087049253731343 -3.615159701492538
H 3.4305477611940303 -1.3641492537313429 -4.484459701492538
H 4.26984776119403 -0.441449253731343 -3.176459701492538
C 2.60904776119403 -3.4296492537313434 -2.8992597014925376
H 1.9825477611940296 -3.869549253731343 -2.119359701492538
H 2.06294776119403 -3.373349253731343 -3.845759701492538
H 3.5215477611940305 -4.019849253731343 -3.0234597014925377
C 3.7281477611940304 -2.060049253731343 -1.156659701492538
H 3.9048477611940298 -1.032549253731343 -0.8295597014925382
H 3.12924776119403 -2.623249253731343 -0.4404597014925382
H 4.68244776119403 -2.5769492537313434 -1.3005597014925383
C 3.1110477611940297 3.755250746268656 2.588740298507462
H 3.40124776119403 4.809350746268656 2.534540298507462
H 2.9823477611940303 3.461750746268656 3.634840298507462
H 3.86514776119403 3.1392507462686563 2.091540298507462
C 1.99744776119403 3.9574507462686572 0.40494029850746194
H 2.67914776119403 3.230350746268657 -0.04295970149253803
H 1.03214776119403 3.981150746268657 -0.10175970149253821
H 2.4399477611940297 4.958250746268657 0.368240298507462
C 0.7418477611940297 4.4992507462686575 2.475440298507462
H -0.18475223880597014 4.424250746268656 1.901240298507462
H 0.57844776119403 4.189650746268656 3.511940298507462
H 1.1210477611940297 5.524350746268658 2.4432402985074617
N 3.00114776119403 -2.025349253731343 -2.490159701492538
N 1.7831477611940298 3.586450746268657 1.862540298507462
C -3.55075223880597 -3.8435492537313434 0.6444402985074619
H -2.62515223880597 -2.2736492537313433 1.7424402985074618
H -4.67195223880597 -1.3478492537313436 1.5102402985074619
H -4.83415223880597 -1.6757492537313432 -0.1945597014925382
H -3.7169522388059697 0.17335074626865676 -0.900559701492538
H -3.9132522388059705 -4.043149253731343 -0.34225970149253815
H -4.35435223880597 -3.9354492537313432 1.3449402985074619
H -2.78115223880597 -4.545049253731343 0.8904402985074619
H -5.24235223880597 1.138950746268657 1.5249402985074618
H -5.92805223880597 0.6501507462686567 -0.006059701492538094
H -4.89895223880597 2.059650746268657 0.08004029850746197
C 1.664262153025275 -1.5373256463324831 3.0167728653011547
O 1.1481667193293288 -1.8718068215062056 4.07201849802019
O 1.4147052816903867 -0.4949993611702507 2.400405485137796
O 2.515976106394745 -2.189411148769099 2.4019426256839624
O -6.1000346927212075 -4.1696222311867155 4.361794586341229
H -5.29031236642419 -3.9166464880065313 3.893478043222601
H -6.159881837095464 -3.53062598115316 5.087786360436017
O 6.877885482830279 8.756472496974396 -2.3295590809094966
H 6.988655550187909 8.624680908957679 -3.2831461647175866
H 7.702361608119112 8.41807875138826 -1.9491767258023007
O -9.197050753422815 -0.39440317364598343 4.698603522206777
H -9.208846570117709 -0.4608673687038731 5.665252748339922
H -9.295061654441676 -1.3109448813848301 4.39976057757427
O 2.2187186972942152 6.274124709545265 -5.9902524672444635
H 2.0724290805911467 5.32982169837848 -5.82944659656116
H 1.6131732375546586 6.713038190985779 -5.3741099542666815
O -3.5131982534332753 -6.220725066716048 7.467156698484045
H -3.915516705251524 -6.053219087439085 8.3326328490122
H -2.9149509064180323 -6.965959254160116 7.627431655834848
O -10.434101010847925 0.5767011672289613 -4.212121794193141
H -10.67862113453258 0.23470583552584978 -5.085171883882456
H -11.279859122006783 0.8375519335141699 -3.817644875429291
O 0.3630134607548605 2.7152704004212964 7.151503760041278
H 1.1234778495538091 2.785616374640332 6.555087199087593
H 0.6919078874156137 3.0665483561260602 7.992571057139063
O -11.330098024696474 1.9129426401503986 3.3793353423774346
H -12.09192274641118 1.9653608881070137 2.78280975401976
H -11.206772796375548 2.8250983348532266 3.682196401248981
O 2.0115973011587673 -7.4623790722756445 5.561852781487872
H 2.5758459160978164 -6.873220553563072 5.038896667394372
H 1.504095720718058 -7.951518789782642 4.896911861625546
O 0.8205768277934247 2.5272877896406927 -3.0600775994516853
H 1.4031535760080907 1.819005140665699 -2.747176051835517
H -0.05023312758230292 2.1060879172455187 -3.1170217248098924
O 2.248575658259717 -10.45858056344985 -0.2825684404800981
H 2.1625284775120983 -11.16301427639124 -0.9423687009051713
H 2.8277271472984817 -9.808681003882915 -0.7082162520789446
O 9.088809968320083 -0.14528897642658745 5.949478628956115
H 9.005635039185766 -0.2936482111642862 4.995519077648227
H 8.212030525231288 -0.3660736740693209 6.298009645888191
O 2.5235722500429825 -4.204467585179336 4.935471633049235
H 2.5541179359707247 -4.922485773724757 4.285483787863529
H 3.4557983357162274 -3.9949155591209995 5.096730486651714
O -3.2041378757659777 2.408961817755893 -5.1458489662692095
H -2.796436859906061 2.4953501768634094 -6.020654253163101
H -2.476386229009598 2.117727224555441 -4.5761807324113395
O -10.652045100635672 -4.262104370511295 -2.0742065934239022
H -10.281400642642673 -4.058647905777756 -1.2023146794705686
H -11.607738594762564 -4.158483405929189 -1.9522451844348117
O -7.3621480984192 8.097169409700472 -1.488630604794633
H -7.171292830164407 7.699889086617335 -0.6256648068800512
H -8.247980467969127 7.770109132392522 -1.7061036660339701
O -4.610561140082592 3.748782519633235 5.483729303800809
H -5.018614283994311 4.035949395713521 6.314388785132391
H -3.749661310213753 4.193527775418997 5.479845402687313
O 6.653689917786613 -10.384076318660792 2.546698706721582
H 6.014743762072538 -10.343270945905573 1.8193404122390664
H 7.125209435620236 -11.217376723015079 2.3975621092515897
O -8.494606591083915 2.1786395140066244 8.492648205793476
H -9.38511479737398 2.29609741094919 8.129101600973845
H -8.19560588962048 3.0819440358547214 8.675955231390304
O -1.628537496622785 -3.592653359365549 -6.906881998763563
H -1.397150534236519 -3.692143807778704 -7.842579108523023
H -1.7280180856681067 -2.6357842037798553 -6.7908346989590544
C -4.807324650525059 -15.009783025978185 0.7720383523577397
O -5.2961969300655625 -14.15572443698068 0.09056489127766021
O -4.318452370984556 -15.86384161497569 1.453511813437819
O 2.8876820017298486 -12.407823013159163 12.370066513469032
H 1.931340729619038 -12.414041683409831 12.526079513881788
H 3.264518416774389 -12.187131759874877 13.235081907158754
O -8.124939025981927 4.278012992932419 -0.7944235686049446
H -8.23210771087175 5.05307201783706 -0.22278929934455816
H -8.613156563391804 3.5786714338300687 -0.3345029622197475
O -6.613753866755685 -8.00724918777486 1.7428936814478493
H -6.996746148391428 -8.89721875415817 1.7274521783164787
H -7.070912498086498 -7.568389544387752 2.4759490296350615
O -9.895906655845769 9.089736697651333 3.610873815223843
H -9.928987238410713 9.082433944608178 4.57928473097973
H -10.631501735271666 8.516717920157589 3.3472238501868925
O 10.557946226370444 6.370014400052414 -11.675804305236225
H 10.50640046154026 5.457051125694415 -11.35516673616237
H 9.77077584165333 6.46738974100586 -12.232439529326935
O 12.378347729476785 -3.870756611789128 11.279436845742438
H 12.585654071098938 -3.6109646153490615 12.189656355645914
H 11.537572105653453 -3.4258356452459173 11.094765168935346
O -13.802349264093278 6.352738600816906 6.168544821240449
H -14.507190929998275 5.762072008599752 5.863129432396269
H -14.091962733538173 7.231366662736871 5.880276350153417
O -6.5581536533830285 -3.7156249954740566 -12.784320463036156
H -5.682544635181603 -3.675402182753953 -12.371212330120306
H -7.100521040464304 -4.1913722795853845 -12.137432463927095
O -17.380633660457864 -3.7923818384599493 0.45156583380056636
H -17.170934523827665 -3.5784501885322593 -0.46996923235577226
H -16.609654000477622 -3.476662737543437 0.946413040030146
O 11.19265186682 7.004336697837459 -0.7893730179553797
H 11.272028209065295 7.288093115958329 0.133746177147275
H 11.385497140348505 7.806175624404259 -1.298123428883881
O 10.242048205597191 -12.012718601337658 0.20737689346712473
H 9.285067466772446 -11.867545541104807 0.2529839652990058
H 10.340023456953134 -12.725113437723252 -0.4421278343931747
O 0.9629395146470654 15.011614841808278 0.005048000647836837
H 0.2781505253270038 14.732693066736005 -0.6212379088188724
H 1.6753103660826794 15.345712717411093 -0.5605210259462501
O -13.570690066101406 12.062559009908417 -6.608493480282651
H -13.232793259852171 12.910177622689401 -6.28240178689901
H -14.104831009350093 12.304676952098287 -7.379878143803481
O -10.513314513154807 -12.407955893057927 -2.585816438457171
H -10.09758198735056 -12.516387573371192 -1.7172679973251495
H -9.814325671358048 -12.650026707874405 -3.211738369657629
O 15.30384891979043 -12.118964357685336 -12.052197418756997
H 14.691848473490925 -12.826255222879634 -11.798894353947453
H 16.064425994035485 -12.246273638863947 -11.465446359653894
O -1.3686193952593966 -18.416593405597265 -3.0832850069056317
H -0.8071301683243064 -17.881408979562018 -2.5025313284281223
H -1.5474851582002058 -17.834659722459055 -3.837156462511164
O 3.0425647759275627 -3.548692020248299 12.3534363375684
H 3.3497475229843414 -3.172535253304635 11.514918476403151
H 3.112077763920696 -2.8124877497719707 12.979641703987982
O -10.804381363568995 -1.4334000710216444 1.864084870278868
H -10.682888459053025 -1.4705227019050877 0.9034451140077848
H -11.119866260725484 -0.5315135155726862 2.0254288043655664
O 8.146647593359424 7.2494032719295465 10.556028767511295
H 9.03675717358072 6.8667296917029 10.571300410998056
H 7.655988151259106 6.7268157871484355 11.208039179182734
O 6.2887746222317435 -5.719601890212911 -3.2190018305200327
H 6.396940526594605 -5.943659071636265 -4.155519782022291
H 6.969858779389698 -6.244719653585133 -2.772529379231722