194

C -5.0710522388059704 1.0783507462686561 0.47044029850746183
C -3.8153522388059704 0.1782507462686569 0.19534029850746193
C -4.11845223880597 -1.3219492537313435 0.5608402985074619
C -2.96945223880597 -2.3874492537313436 0.7034402985074619
C -2.52015223880597 0.7359507462686565 0.7384402985074618
C -2.20305223880597 0.7852507462686571 2.097440298507462
C -1.5755522388059702 1.205650746268656 -0.18965970149253808
C -0.9533522388059701 1.2695507462686564 2.508640298507462
H -2.91125223880597 0.4298507462686567 2.840840298507462
C -0.32655223880597006 1.6562507462686575 0.21554029850746192
H -1.7850522388059702 1.178550746268657 -1.2573597014925382
C 0.004447761194029898 1.6956507462686563 1.569740298507462
H -0.7158522388059702 1.2676507462686573 3.5705402985074617
H 0.3943477611940298 1.9193507462686572 -0.5551597014925382
C -1.76045223880597 -2.1592492537313435 -0.1734597014925381
C -0.5287522388059701 -1.936549253731343 0.464840298507462
C -1.8068522388059702 -2.121249253731343 -1.5681597014925381
C 0.6114477611940299 -1.614449253731343 -0.2582597014925381
H -0.4544522388059702 -1.954049253731343 1.5506402985074619
C -0.6479522388059701 -1.8270492537313432 -2.2998597014925384
H -2.74345223880597 -2.290549253731343 -2.092259701492538
C 0.5698477611940298 -1.5506492537313434 -1.6506597014925382
H 1.5072477611940298 -1.351949253731343 0.2991402985074618
H -0.7173522388059701 -1.7640492537313435 -3.3840597014925375
C 1.7791477611940298 -1.082849253731343 -2.4255597014925376
H 1.4739477611940297 -0.9102492537313429 -3.464259701492538
H 2.1252477611940295 -0.1337492537313434 -2.0010597014925384
C 1.3965477611940298 2.0964507462686566 1.997440298507462
H 1.51704776119403 1.8448507462686567 3.057640298507462
H 2.1256477611940294 1.5207507462686571 1.4165402985074618
C 3.94864776119403 -1.4275492537313434 -3.522959701492538
H 4.81734776119403 -2.087049253731343 -3.615159701492538
H 3.4305477611940303 -1.3641492537313429 -4.484459701492538
H 4.26984776119403 -0.441449253731343 -3.176459701492538
C 2.60904776119403 -3.4296492537313434 -2.8992597014925376
H 1.9825477611940296 -3.869549253731343 -2.119359701492538
H 2.06294776119403 -3.373349253731343 -3.845759701492538
H 3.5215477611940305 -4.019849253731343 -3.0234597014925377
C 3.7281477611940304 -2.060049253731343 -1.156659701492538
H 3.9048477611940298 -1.032549253731343 -0.8295597014925382
H 3.12924776119403 -2.623249253731343 -0.4404597014925382
H 4.68244776119403 -2.5769492537313434 -1.3005597014925383
C 3.1110477611940297 3.755250746268656 2.588740298507462
H 3.40124776119403 4.809350746268656 2.534540298507462
H 2.9823477611940303 3.461750746268656 3.634840298507462
H 3.86514776119403 3.1392507462686563 2.091540298507462
C 1.99744776119403 3.9574507462686572 0.40494029850746194
H 2.67914776119403 3.230350746268657 -0.04295970149253803
H 1.03214776119403 3.981150746268657 -0.10175970149253821
H 2.4399477611940297 4.958250746268657 0.368240298507462
C 0.7418477611940297 4.4992507462686575 2.475440298507462
H -0.18475223880597014 4.424250746268656 1.901240298507462
H 0.57844776119403 4.189650746268656 3.511940298507462
H 1.1210477611940297 5.524350746268658 2.4432402985074617
N 3.00114776119403 -2.025349253731343 -2.490159701492538
N 1.7831477611940298 3.586450746268657 1.862540298507462
C -3.55075223880597 -3.8435492537313434 0.6444402985074619
H -2.62515223880597 -2.2736492537313433 1.7424402985074618
H -4.67195223880597 -1.3478492537313436 1.5102402985074619
H -4.83415223880597 -1.6757492537313432 -0.1945597014925382
H -3.7169522388059697 0.17335074626865676 -0.900559701492538
H -3.9132522388059705 -4.043149253731343 -0.34225970149253815
H -4.35435223880597 -3.9354492537313432 1.3449402985074619
H -2.78115223880597 -4.545049253731343 0.8904402985074619
H -5.24235223880597 1.138950746268657 1.5249402985074618
H -5.92805223880597 0.6501507462686567 -0.006059701492538094
H -4.89895223880597 2.059650746268657 0.08004029850746197
C 2.3511912189869677 -2.371323463479385 3.2458646091591623
O 1.9562509587655659 -2.706461118497899 2.1397541076065636
O 1.6332893336531709 -1.9583007731092534 4.1638300793014755
O 3.5298991419368235 -2.39333059103918 3.618439035431021
O 2.4554907388327054 -0.983369551201462 -8.712245464895245
H 1.6705530132883941 -0.97601817699781 -9.280388124105626
H 3.13548433929502 -0.5466145042447295 -9.246862782785454
O 7.664167714581981 -2.0446953261148604 8.564201407570607
H 6.730510070809076 -1.7856459628482368 8.576209259817485
H 7.881540319188377 -2.180087654554382 9.498749433338332
O -0.15075721682532445 2.309610761988467 8.956411216162042
H -1.1003278178873346 2.406263359853498 8.789254685255605
H 0.19020840756872132 3.214869382580855 8.899743614088674
O 4.871370314755136 -4.311742796479261 -4.789703901444161
H 4.396849973533136 -3.7046421701285146 -5.3772637980939315
H 4.374318520113645 -5.140676436333905 -4.8587725517929465
O -0.8663387582010714 8.096956695410624 -5.475184707264357
H -0.7590978192284662 8.401728171245004 -6.3887388027759515
H -1.489926019972626 7.358697056700503 -5.546413754063101
O -0.7131701994145825 -10.026890976253668 -1.5313122151608523
H -1.0505802316463582 -9.254657346101459 -1.0530057783326456
H 0.12536372928913941 -9.7207346026164 -1.9082619062258253
O 7.328206304668585 0.46227969027144766 1.3664801477357469
H 6.879591308132618 0.6038631382832258 0.5193284086522867
H 6.60925118576604 0.24438406999228368 1.9785152610805485
O 0.3056815653274225 -6.174379257752523 8.372886661442722
H 1.0811984031375452 -6.754635328497689 8.401936335044528
H 0.03475699209550287 -6.099180545402354 9.300198353151599
O 5.691399994449011 2.83974363805612 5.561284652843268
H 5.115646220481191 2.2780472848421485 5.02094017434095
H 6.135957871126794 2.2164363307446573 6.155269702516973
O -0.4230613703253504 3.900647968853905 -6.878159345589884
H -0.5680133327267071 4.045747949291985 -5.9311100959872745
H 0.1182189397278095 4.656775653156191 -7.150645116375104
O 11.134780632825807 -0.6026953966713897 -1.4071614457207404
H 11.00175792962165 -0.6447252570158373 -2.3660701004797255
H 11.33041461938955 -1.518353875381532 -1.1576442359587553
O -2.4269977764548285 -7.184738600849416 -4.170349847098218
H -1.77623878954076 -7.788985072825834 -3.782578910906979
H -2.892694132716214 -7.729473046545575 -4.822540947725149
O -2.509209130998055 -4.023642032070354 3.7600894250869237
H -2.8028189988025054 -4.172340390049419 4.671489118285349
H -2.168430110305116 -4.886496365497601 3.480243033933883
O 11.729975118224177 2.0736060439785926 -5.054068313434396
H 11.474852586038553 1.6833001753553591 -4.20463251280585
H 11.551740138430615 1.3711967566158547 -5.697353187580026
O 0.047646129452927344 8.164131475835942 2.0293657239617398
H 0.21879498797806374 8.181981513035634 2.9829677380627557
H -0.20051052329921726 9.076884569945873 1.8189803414191288
O -3.3899502902932803 -0.7041731086759389 -6.503557647857257
H -3.75463581235822 0.1933637269264581 -6.483571261664158
H -2.512006589913099 -0.6090263236371216 -6.104654285425288
O 4.07950935074407 -10.153739438596094 -1.4307027481629646
H 4.540335727789352 -9.492135140739714 -0.8932214366950353
H 4.6398080668432335 -10.941459122896585 -1.3634346873676382
O -3.1663643219936457 8.133549052837607 7.663424056438563
H -3.3293529078065545 7.31811374298665 8.160884942582374
H -2.2014221485695886 8.221988192706865 7.668626439242816
O -4.367624150944877 6.475111175070065 0.5428744758630426
H -3.848340069527135 6.610171267883098 -0.26401471790241393
H -5.116333679382392 7.082208499322638 0.44373404408952677
O -0.5233386795896378 -6.684176895161319 5.068494254767852
H -0.14949211943746477 -6.77250034519873 5.95810376153803
H -1.2915229437105586 -7.274744013002416 5.077733301355946
C 10.45120494850147 7.891363032917825 -8.803334857150235
O 11.18190108822479 8.032335371999295 -7.865769814975912
O 9.720508808778153 7.750390693836354 -9.740899899324557
O -15.665859298221049 -0.16421379631531074 3.3776615817384577
H -15.473348190900193 0.48331871758990097 2.6829613054367307
H -16.3881254313941 0.2404579520750092 3.881183530838958
O 0.9669566502797418 -13.166739815209429 -13.927650518244981
H 0.994600377738533 -13.268353848123926 -14.890914640667818
H 1.513715594813024 -13.896369474444718 -13.599539010923083
O -1.4274054878743008 11.643444960861387 13.806014673560059
H -1.4032952820668982 11.662544875738007 12.83749970303682
H -0.6506311153921895 11.117645958014835 14.049158514034364
O 11.379673380896948 -6.3783209895481825 10.061051299360932
H 10.877933805080993 -5.722689446653855 9.553732824513002
H 10.717541409377665 -7.042623628892001 10.304454668180721
O 3.9748974192849555 2.753961805713158 7.497332616480746
H 3.3092188866114833 2.6781059700000918 8.197393571131101
H 3.8678388663926544 1.9395418637591453 6.98330871752251
O 4.985372927661661 -14.044410300790686 10.234919681747732
H 4.65173835319651 -14.236486966391936 11.124167612390792
H 5.787526063888922 -14.583427236410834 10.164399943692112
O 1.0233848581595848 -9.261068659862254 10.8964915848811
H 0.8475562063228135 -9.233416153530795 11.849007716496125
H 1.28435598919378 -10.17987309359979 10.733229753423226
O -10.070827937635123 4.966963897986712 12.544345835340412
H -10.335389631541487 4.259015582151401 11.937894147962645
H -10.87449614683607 5.498152085862425 12.648837284182235
O 7.276594497842684 -8.880227600343249 3.583110626729056
H 7.614060479909979 -8.774783536678521 2.680910195957031
H 8.064864926424981 -9.094608389773846 4.1042944262142225
O 18.952986758206592 -7.36331692954392 0.8729079113220184
H 18.88706550905239 -8.258727117844376 1.2374107789344553
H 18.038142602362118 -7.043922749285707 0.8698301793004379
O 12.401844708572167 5.45706429226988 14.993802117913189
H 12.06109556859937 4.589000804610743 14.730509197573777
H 11.697405856870581 5.827137926727069 15.546769886949502
O 18.38512849017662 2.437870820942763 6.470231403131551
H 17.658657147178456 2.8366476918962027 6.9724104069688595
H 19.182082287451657 2.8163901979443735 6.870917902209328
O 9.942052107717034 -6.554210830913257 -14.088954719496513
H 9.773409253793213 -5.6843150250819 -13.696770793618049
H 10.648390632473932 -6.925757751186854 -13.539408798958974
O -1.2798824015670007 -21.350690867573963 2.159527417151862
H -1.505752498203329 -21.964366081380547 1.4444380602845293
H -0.5952507606466764 -20.783684784546985 1.7738519546692881
O 1.2659825091793682 -0.8094273167036099 -19.630207857332287
H 1.9693783364008022 -1.1021678881508414 -19.031455299946334
H 0.9369567226093036 -1.6312612759622334 -20.024280083556423
O -9.469104688946416 2.895878393140221 8.068953848252432
H -9.823284046283813 2.358983974182845 7.344199598434958
H -9.287604504467128 2.2521173085917914 8.770089565039855
O -0.7258703790180023 -13.904736364783517 -3.201665759472029
H -0.7477209157889773 -13.175082148876612 -2.564410209357241
H -0.34547001174318215 -13.507445887511688 -3.999423731256896
O 12.408007506447717 12.59397977041755 3.4833884000440962
H 12.013593925145283 12.052829835085744 4.183789735904168
H 12.723608043370463 13.38385003001328 3.9475685573109143
O -8.387991482058947 -2.4448452030485344 11.638117358348023
H -8.981094683385235 -1.9873015416843574 12.252812199242243
H -8.289576292506117 -1.8231715356487879 10.901368930438583
O -10.841682561892176 15.184585985007605 12.644208391237923
H -10.579809451617049 15.443960006424222 13.540375199387503
H -11.48053267362169 14.469681243934073 12.784720633529375