194

C -5.0710522388059704 1.0783507462686561 0.47044029850746183
C -3.8153522388059704 0.1782507462686569 0.19534029850746193
C -4.11845223880597 -1.3219492537313435 0.5608402985074619
C -2.96945223880597 -2.3874492537313436 0.7034402985074619
C -2.52015223880597 0.7359507462686565 0.7384402985074618
C -2.20305223880597 0.7852507462686571 2.097440298507462
C -1.5755522388059702 1.205650746268656 -0.18965970149253808
C -0.9533522388059701 1.2695507462686564 2.508640298507462
H -2.91125223880597 0.4298507462686567 2.840840298507462
C -0.32655223880597006 1.6562507462686575 0.21554029850746192
H -1.7850522388059702 1.178550746268657 -1.2573597014925382
C 0.004447761194029898 1.6956507462686563 1.569740298507462
H -0.7158522388059702 1.2676507462686573 3.5705402985074617
H 0.3943477611940298 1.9193507462686572 -0.5551597014925382
C -1.76045223880597 -2.1592492537313435 -0.1734597014925381
C -0.5287522388059701 -1.936549253731343 0.464840298507462
C -1.8068522388059702 -2.121249253731343 -1.5681597014925381
C 0.6114477611940299 -1.614449253731343 -0.2582597014925381
H -0.4544522388059702 -1.954049253731343 1.5506402985074619
C -0.6479522388059701 -1.8270492537313432 -2.2998597014925384
H -2.74345223880597 -2.290549253731343 -2.092259701492538
C 0.5698477611940298 -1.5506492537313434 -1.6506597014925382
H 1.5072477611940298 -1.351949253731343 0.2991402985074618
H -0.7173522388059701 -1.7640492537313435 -3.3840597014925375
C 1.7791477611940298 -1.082849253731343 -2.4255597014925376
H 1.4739477611940297 -0.9102492537313429 -3.464259701492538
H 2.1252477611940295 -0.1337492537313434 -2.0010597014925384
C 1.3965477611940298 2.0964507462686566 1.997440298507462
H 1.51704776119403 1.8448507462686567 3.057640298507462
H 2.1256477611940294 1.5207507462686571 1.4165402985074618
C 3.94864776119403 -1.4275492537313434 -3.522959701492538
H 4.81734776119403 -2.087049253731343 -3.615159701492538
H 3.4305477611940303 -1.3641492537313429 -4.484459701492538
H 4.26984776119403 -0.441449253731343 -3.176459701492538
C 2.60904776119403 -3.4296492537313434 -2.8992597014925376
H 1.9825477611940296 -3.869549253731343 -2.119359701492538
H 2.06294776119403 -3.373349253731343 -3.845759701492538
H 3.5215477611940305 -4.019849253731343 -3.0234597014925377
C 3.7281477611940304 -2.060049253731343 -1.156659701492538
H 3.9048477611940298 -1.032549253731343 -0.8295597014925382
H 3.12924776119403 -2.623249253731343 -0.4404597014925382
H 4.68244776119403 -2.5769492537313434 -1.3005597014925383
C 3.1110477611940297 3.755250746268656 2.588740298507462
H 3.40124776119403 4.809350746268656 2.534540298507462
H 2.9823477611940303 3.461750746268656 3.634840298507462
H 3.86514776119403 3.1392507462686563 2.091540298507462
C 1.99744776119403 3.9574507462686572 0.40494029850746194
H 2.67914776119403 3.230350746268657 -0.04295970149253803
H 1.03214776119403 3.981150746268657 -0.10175970149253821
H 2.4399477611940297 4.958250746268657 0.368240298507462
C 0.7418477611940297 4.4992507462686575 2.475440298507462
H -0.18475223880597014 4.424250746268656 1.901240298507462
H 0.57844776119403 4.189650746268656 3.511940298507462
H 1.1210477611940297 5.524350746268658 2.4432402985074617
N 3.00114776119403 -2.025349253731343 -2.490159701492538
N 1.7831477611940298 3.586450746268657 1.862540298507462
C -3.55075223880597 -3.8435492537313434 0.6444402985074619
H -2.62515223880597 -2.2736492537313433 1.7424402985074618
H -4.67195223880597 -1.3478492537313436 1.5102402985074619
H -4.83415223880597 -1.6757492537313432 -0.1945597014925382
H -3.7169522388059697 0.17335074626865676 -0.900559701492538
H -3.9132522388059705 -4.043149253731343 -0.34225970149253815
H -4.35435223880597 -3.9354492537313432 1.3449402985074619
H -2.78115223880597 -4.545049253731343 0.8904402985074619
H -5.24235223880597 1.138950746268657 1.5249402985074618
H -5.92805223880597 0.6501507462686567 -0.006059701492538094
H -4.89895223880597 2.059650746268657 0.08004029850746197
C 2.1762502375692807 2.72387815086441 -3.107983252915688
O 1.1064616239279583 3.1889260349399597 -2.745963521077449
O 2.5784545607802727 2.687437746620307 -4.276544438061298
O 3.022214541578889 2.217725140010146 -2.361791648604367
O -1.0077864311123093 -8.5690370870874 -6.509158782774036
H -0.1518070981091224 -8.760020343020797 -6.9212171940757585
H -0.8546602715206348 -8.730122016490396 -5.565990733554845
O 2.424262594474145 9.421039223748842 -0.4646241860512106
H 1.8163711519645511 8.800725403606307 -0.894328870181814
H 2.0677593996845243 9.515285528773152 0.4314701451405769
O 7.265257297856039 -2.3872093153410145 4.470093909976586
H 7.534324202936287 -1.471506978842699 4.30258394483402
H 7.9678438366593705 -2.9158419809903555 4.062808255182773
O 4.617324921089329 -3.961299334829855 3.7282573636497274
H 4.650126377804999 -3.761049336827023 2.780738836317836
H 4.8916860814971 -3.134143389482359 4.151932876319495
O 1.5574009520452936 6.344187853213991 -3.0149639424618186
H 2.326949683040935 6.091584610321795 -2.483030009342916
H 1.90526880036831 6.40108794576593 -3.9175780814330037
O 3.8579194628871933 6.540960204626645 -7.12025761490958
H 3.9279166068627394 6.534338125958134 -6.153808493222681
H 4.482284001818304 7.229004644166809 -7.39544067405967
O 0.19639174304968982 3.102265097306957 -6.4341899023319735
H 0.252161845896538 3.180575669970314 -7.398412131248934
H -0.12373731597799531 2.1989751087460188 -6.290849306436648
O 9.061984191438746 -3.82784828595723 -0.770145979962868
H 9.622053637120349 -4.585336091182535 -0.5432059045049336
H 9.605129506899456 -3.3106705438301383 -1.3837275097055843
O -1.7356428597974407 -9.495945086509543 1.2305617662435804
H -1.847997264981652 -9.472809020118689 2.192751231456987
H -2.217046040250363 -10.291427610796674 0.9577606011002017
O -0.27621116608285234 0.07777381590759314 10.041034978623209
H -0.6489342143508021 0.9624221234577954 9.908965837116153
H 0.6702454451373403 0.2396197262883013 10.171371959832031
O -0.6585461535860972 9.483342496101276 -1.8857244978736927
H -1.576447222469465 9.179172069072425 -1.9482171851567487
H -0.31737910755582605 9.384670825061388 -2.7872958441004756
O 7.472325838146471 -2.746592137799397 -7.307541516391927
H 7.390975340185205 -1.8133655666727861 -7.555407650272141
H 7.915760903476113 -2.7222220857315484 -6.446302067865384
O -4.042232979301063 -2.741332510010604 -3.770953030811653
H -4.72036833152276 -3.3985044678298593 -3.5536403095476574
H -3.3646183986091613 -3.2506753967624338 -4.2403891266213485
O -3.1837682692443208 6.415976207109873 -0.09018721748377789
H -2.7542117523355216 6.040789513736847 0.6931923206693429
H -3.7948623009182714 7.075451319246865 0.2712247430603889
O 4.3491025002811785 3.4301211363008153 -7.245103260064334
H 3.7394270279679684 3.4184550078149885 -6.492024859892203
H 4.708436224377399 2.5305346632670886 -7.269298229828346
O -9.622214208689805 -5.6083866845572174 -0.284014087468329
H -10.015435747985617 -5.285532194531586 -1.1087013956064644
H -10.143180791890602 -6.396683152651113 -0.06920151363063232
O -8.625074597802493 4.216892855317747 -2.503118251120002
H -8.284033431217559 4.089928464085408 -1.6050434641710587
H -9.587052201988953 4.1685078905802975 -2.397194087063661
O 6.825561214826733 2.6487684179477022 7.036636847295275
H 7.27419960790568 3.4274660046237093 7.399019266378353
H 7.545198100509773 2.1138564732198275 6.669276113884834
O 1.4337435602719197 7.341078559490244 6.205697097835386
H 2.067577173305187 8.00288932648779 6.520703155833187
H 1.0466987374873944 6.982257388317634 7.0183505396997585
O -2.741105079806495 -3.4067205670582466 4.19784580502339
H -2.9733770560395 -3.8392634713958884 5.0332640965779705
H -3.4018318793436895 -2.7038160046506023 4.106592219779562
C 7.831967705610971 -10.110547109156624 -1.5611274809545366
O 8.346621208348097 -9.656766054318897 -0.5802947818203923
O 7.317314202873847 -10.564328163994348 -2.5419601800886804
O 2.550780504542593 6.37946116205179 11.799246257685109
H 2.265840303971904 6.862250831070304 12.589619950622653
H 3.3509183850972226 5.913694288535083 12.085257683918428
O -3.9654255695978615 -15.647637862734436 0.9748816263237119
H -3.1453070062115915 -15.133107132165192 1.0152675915730067
H -4.441891231920943 -15.269771971619077 0.22045483381258846
O 0.9422243487760005 18.916954821409007 -4.589487812162552
H 0.3851968656349918 19.696624729747963 -4.733718786493044
H 1.8450920077173514 19.250252527612936 -4.702202379885454
O 15.594529509343335 -9.18500734272567 10.415362418703435
H 15.547576299799976 -9.095458194631952 9.451648922331579
H 15.46611230730338 -10.133115259436263 10.568862727468362
O -5.30722059636266 -13.065519703679868 8.619210476078509
H -5.683485500309146 -13.108620225057356 7.727283111314355
H -5.926603458797028 -12.502655224519456 9.107585733562022
O -3.6447968827528987 -9.800730144799731 8.422284871830586
H -4.504386975575922 -9.520247786292344 8.073857152229172
H -3.8674810188283244 -10.291157634537573 9.227799984755093
O 10.441205376478154 13.845320428086088 12.080062803912494
H 10.524702539084602 14.810204822566782 12.111585589707769
H 11.32988803135664 13.541138113835972 11.84199095989148
O -9.865835306538372 -1.4645946136073502 -7.597915578545058
H -10.06103416235126 -1.2642527501210807 -6.6701613539121585
H -9.22360887549681 -2.1886776694345844 -7.550895542012613
O 11.583671813209667 -1.7765951150230874 18.206694609523147
H 12.440233074016316 -1.4090585956305488 18.471623034381903
H 11.226157145616861 -2.1509424038491565 19.02584619140807
O -4.802998120521277 5.611615727710677 1.5244286783656684
H -5.327186544738517 4.796936447612291 1.5022583514618222
H -4.704018253816099 5.800601681199864 2.4696531171476996
O 10.00238825872742 -2.886293740541336 -11.68462589823175
H 10.636780486080905 -3.5829074936820984 -11.910995369911625
H 9.289743335929131 -3.358089874513543 -11.227999610904028
O -13.913367215985536 -6.663628875703237 -10.582899464230518
H -14.437312112063477 -7.401748980606654 -10.237026924830172
H -14.408064749581413 -5.876782474898667 -10.30883918601594
O -8.355032321635864 -17.65837431818439 -3.9893210984598912
H -8.429105730067402 -17.659332413254763 -3.0231536341364587
H -8.947111205623214 -18.372188100458843 -4.2701670058029375
O 6.4686187880986505 -4.100183266392952 13.568151666294106
H 6.938193536513447 -3.266263812721011 13.416345021714001
H 6.640121753458751 -4.298927403452426 14.500916076612796
O 8.568521575971978 3.464837844420173 -18.470627895768846
H 9.058200016534705 4.286907863385151 -18.623543773515333
H 7.83421342632558 3.509025828751755 -19.10134249660158
O 12.314386777087774 13.880667545245286 -14.337883559041682
H 12.374365674964595 14.805108149330946 -14.053666286119679
H 11.589528548884973 13.51889794576878 -13.806220836818932
O 9.235261371895241 4.252653774896903 15.22972689885188
H 8.878940453608847 4.765613934535093 15.97058763793548
H 10.11690533835069 3.9870086864668313 15.531552258465144
O 16.00312862101899 -3.828788483493945 -4.275591721750099
H 15.54010175305408 -2.9781444409946527 -4.244315702133372
H 15.975080991983699 -4.076249640352332 -5.212041533887305
O -3.839826874018023 -2.2872091567466644 -19.312090737864395
H -4.417386352299347 -1.865101747023351 -18.65847178112884
H -4.426283196404123 -2.8985719517838957 -19.782480426396823
O -2.6613762488603245 0.2364728889609511 15.318377694284939
H -2.3011782412068267 0.7225866131805878 14.561464093331853
H -2.732113938094418 0.9065892562669386 16.01472687242077