194

C -5.0710522388059704 1.0783507462686561 0.47044029850746183
C -3.8153522388059704 0.1782507462686569 0.19534029850746193
C -4.11845223880597 -1.3219492537313435 0.5608402985074619
C -2.96945223880597 -2.3874492537313436 0.7034402985074619
C -2.52015223880597 0.7359507462686565 0.7384402985074618
C -2.20305223880597 0.7852507462686571 2.097440298507462
C -1.5755522388059702 1.205650746268656 -0.18965970149253808
C -0.9533522388059701 1.2695507462686564 2.508640298507462
H -2.91125223880597 0.4298507462686567 2.840840298507462
C -0.32655223880597006 1.6562507462686575 0.21554029850746192
H -1.7850522388059702 1.178550746268657 -1.2573597014925382
C 0.004447761194029898 1.6956507462686563 1.569740298507462
H -0.7158522388059702 1.2676507462686573 3.5705402985074617
H 0.3943477611940298 1.9193507462686572 -0.5551597014925382
C -1.76045223880597 -2.1592492537313435 -0.1734597014925381
C -0.5287522388059701 -1.936549253731343 0.464840298507462
C -1.8068522388059702 -2.121249253731343 -1.5681597014925381
C 0.6114477611940299 -1.614449253731343 -0.2582597014925381
H -0.4544522388059702 -1.954049253731343 1.5506402985074619
C -0.6479522388059701 -1.8270492537313432 -2.2998597014925384
H -2.74345223880597 -2.290549253731343 -2.092259701492538
C 0.5698477611940298 -1.5506492537313434 -1.6506597014925382
H 1.5072477611940298 -1.351949253731343 0.2991402985074618
H -0.7173522388059701 -1.7640492537313435 -3.3840597014925375
C 1.7791477611940298 -1.082849253731343 -2.4255597014925376
H 1.4739477611940297 -0.9102492537313429 -3.464259701492538
H 2.1252477611940295 -0.1337492537313434 -2.0010597014925384
C 1.3965477611940298 2.0964507462686566 1.997440298507462
H 1.51704776119403 1.8448507462686567 3.057640298507462
H 2.1256477611940294 1.5207507462686571 1.4165402985074618
C 3.94864776119403 -1.4275492537313434 -3.522959701492538
H 4.81734776119403 -2.087049253731343 -3.615159701492538
H 3.4305477611940303 -1.3641492537313429 -4.484459701492538
H 4.26984776119403 -0.441449253731343 -3.176459701492538
C 2.60904776119403 -3.4296492537313434 -2.8992597014925376
H 1.9825477611940296 -3.869549253731343 -2.119359701492538
H 2.06294776119403 -3.373349253731343 -3.845759701492538
H 3.5215477611940305 -4.019849253731343 -3.0234597014925377
C 3.7281477611940304 -2.060049253731343 -1.156659701492538
H 3.9048477611940298 -1.032549253731343 -0.8295597014925382
H 3.12924776119403 -2.623249253731343 -0.4404597014925382
H 4.68244776119403 -2.5769492537313434 -1.3005597014925383
C 3.1110477611940297 3.755250746268656 2.588740298507462
H 3.40124776119403 4.809350746268656 2.534540298507462
H 2.9823477611940303 3.461750746268656 3.634840298507462
H 3.86514776119403 3.1392507462686563 2.091540298507462
C 1.99744776119403 3.9574507462686572 0.40494029850746194
H 2.67914776119403 3.230350746268657 -0.04295970149253803
H 1.03214776119403 3.981150746268657 -0.10175970149253821
H 2.4399477611940297 4.958250746268657 0.368240298507462
C 0.7418477611940297 4.4992507462686575 2.475440298507462
H -0.18475223880597014 4.424250746268656 1.901240298507462
H 0.57844776119403 4.189650746268656 3.511940298507462
H 1.1210477611940297 5.524350746268658 2.4432402985074617
N 3.00114776119403 -2.025349253731343 -2.490159701492538
N 1.7831477611940298 3.586450746268657 1.862540298507462
C -3.55075223880597 -3.8435492537313434 0.6444402985074619
H -2.62515223880597 -2.2736492537313433 1.7424402985074618
H -4.67195223880597 -1.3478492537313436 1.5102402985074619
H -4.83415223880597 -1.6757492537313432 -0.1945597014925382
H -3.7169522388059697 0.17335074626865676 -0.900559701492538
H -3.9132522388059705 -4.043149253731343 -0.34225970149253815
H -4.35435223880597 -3.9354492537313432 1.3449402985074619
H -2.78115223880597 -4.545049253731343 0.8904402985074619
H -5.24235223880597 1.138950746268657 1.5249402985074618
H -5.92805223880597 0.6501507462686567 -0.006059701492538094
H -4.89895223880597 2.059650746268657 0.08004029850746197
C 1.9632169685671572 -1.8192842907134479 3.8989833266602334
O 1.7418217793608153 -2.668604221981374 4.748345041801276
O 2.7109112480647464 -1.9636177378873902 2.9249440130114115
O 1.4738247015729617 -0.6840060518818203 3.8820447953885933
O 8.137055070221718 -6.709730443485688 -2.393763489414001
H 8.09053140644902 -7.419451190391007 -3.0518663438534257
H 9.070742010287688 -6.450520480740072 -2.3946786198220322
O -3.1884955407422386 0.4761258893631637 -7.680629649153518
H -2.8449686926996716 0.6006663118040809 -8.578096275135888
H -4.143058152625265 0.61405686849736 -7.774156165661605
O 4.352615969262241 0.0650724027314122 6.842987502290493
H 4.348962462964861 -0.7351457505496292 6.2965399604795556
H 5.197802005229247 0.022316321988134897 7.3149985471462795
O 3.753497712418831 -5.772187768456678 -1.2381874273268048
H 3.7806602221102867 -5.811252315139459 -0.27035298065747304
H 4.2136661203816255 -6.577753129061755 -1.517957744562569
O 1.3119433538813159 5.716102162517642 6.863370322748065
H 1.319171299729134 5.604193935695408 5.90087790071643
H 0.7708352910671532 4.977594456045458 7.180813823451259
O 0.5527861139001733 9.486764662022022 -3.0715406410573705
H 0.7621256662669454 8.97524706567947 -2.275617241887062
H 1.068493519277013 9.055411878343165 -3.7693533611707175
O -3.977688222413951 12.898067343126653 -2.304235238443221
H -4.460139696939705 12.264838702092092 -1.7517595196994478
H -3.350021831671927 12.348226678377205 -2.7968528280812315
O -4.676687059849704 -0.6360007167931316 6.283207199813171
H -4.453791041281175 -1.5220272482880137 5.960342356119332
H -4.2539705886998 -0.0413163972905366 5.645536995509796
O -1.1524596156201603 -8.979046284639455 -2.080346798647964
H -1.7262545920704575 -8.304506653388168 -1.6869983935771127
H -0.8941698151918867 -8.59827128070162 -2.9331414513462937
O 8.104359253265304 7.251193363628771 -2.736240860607289
H 7.549623998386876 7.1894624632753565 -1.944138941763176
H 8.749956290640185 6.537026418526592 -2.626095574025451
O 4.804492211538358 -6.062530932055079 3.472141237112015
H 4.237625647203736 -5.643899764020309 4.137255964275162
H 4.532534080067063 -6.9925004014242855 3.484691339414386
O 4.69845696206315 6.381755211340991 -6.656921767213946
H 3.7511747702807092 6.208513841815641 -6.549166331542067
H 5.087891277690827 5.499984336069098 -6.755830723501238
O 1.7955224249253665 -4.3280195259525005 7.339555233201019
H 1.3740113696794438 -3.6766892580891124 6.758982525118323
H 1.5466458406928494 -4.042329097341083 8.231409127693034
O -6.557148554038043 -0.05561023405473531 -2.6200983109016422
H -6.062265770926268 0.034174906763597024 -3.4483476793697245
H -6.92144372709541 -0.9525853168091829 -2.6611674246582573
O -0.21095684786621627 -1.2383076848894694 6.338503196275376
H -0.7035213987712963 -0.6190560597311978 6.897855450968709
H 0.5968021178418454 -1.417595940988972 6.842827614525217
O -0.8617701391728616 8.463633946369882 8.086392528958537
H -0.5573526069810537 8.368980849518465 9.001454337936865
H -0.06348816263563961 8.31502786133726 7.557597614339364
O -0.5542072923631296 4.66692327172575 -8.444634170262239
H -0.6330364440561556 4.523605321793581 -9.3997327447406
H -1.413988564169677 4.389144341143565 -8.094524223709255
O -4.390120043083588 5.121588823065355 1.4639622324632935
H -3.9054739854191283 4.7613792027185635 2.2218108882646477
H -4.666428321641331 6.001970516032267 1.7598401704532183
O 4.4341360372034995 6.465094539168793 -2.989348037029849
H 5.007845287156963 6.332857432471384 -2.2197127980821154
H 3.762614765887484 5.771920870433895 -2.902564447321174
O -6.206000100216599 1.0946303731582616 4.701054341200006
H -5.81798158978177 0.5315414255912696 4.014512405417613
H -5.5149530969234934 1.7482837691664468 4.885860243233961
C 9.02859611208833 17.167627575245277 -4.444886464518689
O 10.183095157325544 17.252831145972017 -4.749337714116674
O 7.874097066851116 17.08242400451854 -4.140435214920703
O -8.902136172720487 -2.0832984895846325 6.013537820253033
H -8.547852734649858 -1.9729666172867255 5.118396780883205
H -9.403226126044917 -2.9113446368501137 5.966523131313144
O 2.3046967900929767 10.297221558613105 9.913159554949159
H 2.3928498102319566 9.333406868889245 9.865644864453705
H 1.3844421981688857 10.460966549973497 9.657658071299824
O 9.868969550842573 -5.078108558108528 -18.03610984367892
H 10.800169569832715 -5.320622454385541 -17.92200072202205
H 9.615705494306766 -5.506569853538895 -18.867518395646698
O 11.289253437637981 -0.1016123739475212 -7.787643838985201
H 10.842810980258882 -0.8484212242330988 -7.361107755770143
H 10.5847565938386 0.3380199514340285 -8.287013000884812
O -4.779953381324752 5.911596771584726 -19.337817890492772
H -5.483437934937323 5.771205571985249 -18.686383203971136
H -5.240257994123494 6.291552938801787 -20.10117555157303
O 11.505079474392527 1.139574571038163 -3.704825803588174
H 11.39922210407922 1.1953765933264737 -4.666411841526998
H 10.996775136260133 1.8932261984401388 -3.369269744709567
O 0.16686059891768512 -1.1901013754772194 -8.942060225320589
H -0.564945194862779 -0.7536906699722132 -9.40355056455855
H -0.26990860065979594 -1.8464544823653843 -8.378681835888852
O 4.667469945914604 1.343620970507379 24.10173711183991
H 3.8779342486594883 1.0748687220279516 23.608408652700227
H 5.260311898270385 0.5806595531277567 24.028318861948865
O 0.7915223414596007 12.419984729717996 -12.713835109039804
H 1.040465981511236 12.59964502667102 -11.794750456422545
H 1.1846473733616376 13.153331745574441 -13.21044039286839
O 9.950417273256754 8.91028463438792 -3.155227721138668
H 10.181363687585725 9.220792600691375 -2.2668494720405237
H 10.779583326985968 8.982746240606309 -3.6514080464916354
O 0.8162042295735503 23.487868041039142 0.642778105053301
H 1.1680506867756426 23.93802198252755 1.4254228880914237
H 0.8013562694999887 24.177990531494213 -0.03727515061844855
O 20.941033030246924 -8.103604085198183 -6.197338778845138
H 20.65949848919582 -7.5632241530906 -5.443883280444236
H 21.858559505517654 -8.335511918770317 -5.989190110328737
O -10.843024590769396 -2.4481741006434348 -16.590829578823158
H -10.812679494012063 -2.5392887434222997 -15.626596902611615
H -9.996364693089772 -2.8145454050394014 -16.887310656256993
O 18.609540960056183 4.939934277695175 -8.102519324548869
H 18.469902260263154 5.273729250093064 -7.203603696237732
H 18.7510477318277 3.9892080142682946 -7.979810930894789
O -9.225775081587908 -2.7712904880919322 -11.845734309216152
H -9.05748038245266 -2.876374414951046 -12.79420761904561
H -10.095613438363962 -3.178084769564239 -11.715882124242002
O -10.868065440046719 6.868967872097687 -8.140328747226958
H -10.76028854854621 6.784697344096559 -9.099625352385601
H -11.09833252706211 7.801378145069858 -8.01168157161316
O -5.581359833244326 -13.137859498449808 1.1722179948642024
H -5.986795980909207 -13.131670112918947 2.0523035467132322
H -6.183962207809669 -13.679465962008305 0.6407156325930012
O -5.718225226090157 2.571833650379225 -15.656647472829587
H -6.066462728562181 3.1517140960527703 -14.962791099004646
H -6.444728048032463 2.5078389231870304 -16.294660222624962
O 6.599485547643657 -1.0105116555659617 -16.725096557281383
H 6.925426149098582 -0.2266897933466545 -17.19237952244303
H 7.209231771274669 -1.1082448747278475 -15.978357175073654
O 4.807032040023862 9.533975849031837 1.5777406714157651
H 4.83043551355095 8.609680603572452 1.8677371085456707
H 3.8700057729718886 9.69764403287839 1.3929260487502026