194

C -5.0710522388059704 1.0783507462686561 0.47044029850746183
C -3.8153522388059704 0.1782507462686569 0.19534029850746193
C -4.11845223880597 -1.3219492537313435 0.5608402985074619
C -2.96945223880597 -2.3874492537313436 0.7034402985074619
C -2.52015223880597 0.7359507462686565 0.7384402985074618
C -2.20305223880597 0.7852507462686571 2.097440298507462
C -1.5755522388059702 1.205650746268656 -0.18965970149253808
C -0.9533522388059701 1.2695507462686564 2.508640298507462
H -2.91125223880597 0.4298507462686567 2.840840298507462
C -0.32655223880597006 1.6562507462686575 0.21554029850746192
H -1.7850522388059702 1.178550746268657 -1.2573597014925382
C 0.004447761194029898 1.6956507462686563 1.569740298507462
H -0.7158522388059702 1.2676507462686573 3.5705402985074617
H 0.3943477611940298 1.9193507462686572 -0.5551597014925382
C -1.76045223880597 -2.1592492537313435 -0.1734597014925381
C -0.5287522388059701 -1.936549253731343 0.464840298507462
C -1.8068522388059702 -2.121249253731343 -1.5681597014925381
C 0.6114477611940299 -1.614449253731343 -0.2582597014925381
H -0.4544522388059702 -1.954049253731343 1.5506402985074619
C -0.6479522388059701 -1.8270492537313432 -2.2998597014925384
H -2.74345223880597 -2.290549253731343 -2.092259701492538
C 0.5698477611940298 -1.5506492537313434 -1.6506597014925382
H 1.5072477611940298 -1.351949253731343 0.2991402985074618
H -0.7173522388059701 -1.7640492537313435 -3.3840597014925375
C 1.7791477611940298 -1.082849253731343 -2.4255597014925376
H 1.4739477611940297 -0.9102492537313429 -3.464259701492538
H 2.1252477611940295 -0.1337492537313434 -2.0010597014925384
C 1.3965477611940298 2.0964507462686566 1.997440298507462
H 1.51704776119403 1.8448507462686567 3.057640298507462
H 2.1256477611940294 1.5207507462686571 1.4165402985074618
C 3.94864776119403 -1.4275492537313434 -3.522959701492538
H 4.81734776119403 -2.087049253731343 -3.615159701492538
H 3.4305477611940303 -1.3641492537313429 -4.484459701492538
H 4.26984776119403 -0.441449253731343 -3.176459701492538
C 2.60904776119403 -3.4296492537313434 -2.8992597014925376
H 1.9825477611940296 -3.869549253731343 -2.119359701492538
H 2.06294776119403 -3.373349253731343 -3.845759701492538
H 3.5215477611940305 -4.019849253731343 -3.0234597014925377
C 3.7281477611940304 -2.060049253731343 -1.156659701492538
H 3.9048477611940298 -1.032549253731343 -0.8295597014925382
H 3.12924776119403 -2.623249253731343 -0.4404597014925382
H 4.68244776119403 -2.5769492537313434 -1.3005597014925383
C 3.1110477611940297 3.755250746268656 2.588740298507462
H 3.40124776119403 4.809350746268656 2.534540298507462
H 2.9823477611940303 3.461750746268656 3.634840298507462
H 3.86514776119403 3.1392507462686563 2.091540298507462
C 1.99744776119403 3.9574507462686572 0.40494029850746194
H 2.67914776119403 3.230350746268657 -0.04295970149253803
H 1.03214776119403 3.981150746268657 -0.10175970149253821
H 2.4399477611940297 4.958250746268657 0.368240298507462
C 0.7418477611940297 4.4992507462686575 2.475440298507462
H -0.18475223880597014 4.424250746268656 1.901240298507462
H 0.57844776119403 4.189650746268656 3.511940298507462
H 1.1210477611940297 5.524350746268658 2.4432402985074617
N 3.00114776119403 -2.025349253731343 -2.490159701492538
N 1.7831477611940298 3.586450746268657 1.862540298507462
C -3.55075223880597 -3.8435492537313434 0.6444402985074619
H -2.62515223880597 -2.2736492537313433 1.7424402985074618
H -4.67195223880597 -1.3478492537313436 1.5102402985074619
H -4.83415223880597 -1.6757492537313432 -0.1945597014925382
H -3.7169522388059697 0.17335074626865676 -0.900559701492538
H -3.9132522388059705 -4.043149253731343 -0.34225970149253815
H -4.35435223880597 -3.9354492537313432 1.3449402985074619
H -2.78115223880597 -4.545049253731343 0.8904402985074619
H -5.24235223880597 1.138950746268657 1.5249402985074618
H -5.92805223880597 0.6501507462686567 -0.006059701492538094
H -4.89895223880597 2.059650746268657 0.08004029850746197
C -1.7760859782772274 3.1858383254757383 -1.8981345946423875
O -2.2779789995210438 3.2283786601819378 -0.7854490084367255
O -2.399676183067506 3.248036404815122 -2.963919807298348
O -0.5669040849340256 3.074005500890964 -2.130558673765747
O 11.186364040589586 3.5404568341464766 -1.6471216632641958
H 11.52536351970125 4.37370836360777 -1.286929216491035
H 10.233940449720969 3.6946190723945187 -1.7370396934655141
O 0.08510886776577564 1.5005960982919577 11.387804557818114
H 0.2982475813882619 0.7326239048184671 10.836662148175318
H -0.2374596532663693 2.160195898082481 10.755475847687508
O -0.17606620184609806 3.1466834597584463 7.534672878099037
H -0.43319021820184145 3.5939995367334543 8.35489414360779
H 0.558486779766964 2.573559474772736 7.800986151026728
O -1.1250698515179212 6.770410813384601 3.524334461595279
H -0.3012031860071341 7.278126355392579 3.5736903403097924
H -1.1238635084251816 6.24273446400828 4.337057144522993
O -8.874118829917201 3.385808937653807 -0.3774267878547477
H -8.190088417502825 3.136899063429465 0.2621931198293725
H -9.03837031592591 2.5699912740344364 -0.8738388479122794
O 2.033542029954437 5.97546093476917 -4.047981173305296
H 1.345491201715428 5.5855564652131395 -3.4880455347897215
H 1.6795756595532536 5.891945443272234 -4.946143138434659
O -7.480901517031416 -0.25590316573454586 -7.071445223259188
H -8.345020837625723 0.13105063247860205 -7.277677894589536
H -7.1951317262721 -0.6503257143967238 -7.909137543921261
O 1.1232574234324466 7.9383885298675825 -6.301594384985581
H 1.0233585670802405 7.955375536978255 -5.337904073220985
H 0.2129245425692572 7.972284545856472 -6.631907948769156
O -4.793110282457912 7.640503468437028 -2.0550260466254677
H -4.646818239456937 7.339678412886452 -2.9644600909671093
H -4.1058769606929815 8.309414463602632 -1.916352378243555
O 4.790246372770099 -10.298454814781097 -1.975828838585485
H 3.962743328634085 -9.860115416700822 -2.2249565988536943
H 4.578542577072108 -10.74041912439131 -1.1398796797140687
O 0.1464164890128199 4.101982101696809 -9.404260906582822
H -0.35127690785810906 4.931796084523892 -9.35251737060268
H -0.4221426014111538 3.5205161487610663 -9.931138359671102
O -6.141564252291365 0.4681789803359868 6.069550378239956
H -5.282078591176601 0.03750750150249704 6.191098033739731
H -6.566272816901831 0.39209173081878035 6.93718815398939
O -5.373505508408397 -8.31066921009604 -1.0461328698803207
H -6.317954212462699 -8.526774758960137 -1.062937454382693
H -4.935772128292356 -9.175088551741922 -1.0347033458006956
O 3.7339116508254273 -6.013335268022848 6.288361807457791
H 4.410569383161463 -5.52085016151032 5.799935671759467
H 2.960336685849199 -5.989255974733743 5.705297569575957
O 8.268104086877957 -6.104526956587705 3.282923026027847
H 8.370756701401557 -6.28607645224559 4.229215569725534
H 8.94468287928207 -6.657286181530672 2.8638045210564673
O -6.735438795562536 5.224239426921735 8.916078255492828
H -7.0007917627694365 4.805487296111616 9.748665675909734
H -6.956005871514074 6.1591475374621 9.043588781144765
O -0.024957859160260956 -0.7537117260422124 -7.947102232214606
H -0.8007471356756974 -0.6797712698721745 -8.522993857683343
H -0.14211038173032717 -1.6080616974561102 -7.505148210736647
O -3.4817004842291297 -4.495576081560292 6.263061199046312
H -3.8225065787378845 -3.9500947892896936 5.538306949228838
H -4.142601509503304 -4.392714593448708 6.964196915833735
O -9.215390218943721 0.7841506496820632 5.46999899645122
H -9.38055130091189 0.981672114028898 6.404169454678939
H -9.67637532255215 -0.0554415742729919 5.323235322385285
O -3.713240309696223 8.365445095783162 2.936710104044262
H -3.5957915894604406 8.282878284653181 3.895018966945364
H -2.869108687502819 8.727323399953331 2.6277637629362096
C 23.90545229621866 4.286040862450479 0.3990040583987726
O 24.46380070940913 4.210342274423892 1.4550982921480449
O 23.347103883028183 4.3617394504770655 -0.6570901753504996
O 12.495524127917621 -7.54659450912715 -11.112585338258823
H 11.755341836914361 -6.957934712138586 -11.323718415711289
H 13.203536546224049 -7.254536400833888 -11.706203415143321
O -15.536711224692546 -6.83664592885869 3.4798412196406816
H -16.128949218622104 -7.067936807678587 2.748591573609305
H -16.00772904591435 -7.144318031643966 4.2687911759491595
O 5.673497525681377 6.546562708972486 11.803589030752013
H 6.260435255204138 7.090961627071377 12.349575547559361
H 6.128151964769797 5.692460148202713 11.751052367328207
O -5.530209206298919 3.232282586242192 13.385951350846153
H -5.582895423242761 3.266952361896633 12.419002786495277
H -5.985876616440504 4.037416331440211 13.674202643953873
O 7.599796769773781 -4.392253046253406 10.987379140895769
H 7.929988587682988 -3.835394605578215 11.708384964266573
H 8.27740447304269 -5.078397812806209 10.892431238850325
O -9.5207118857373 4.620707413355927 -13.863605579799552
H -8.988082927112616 4.680391184971157 -13.056319015598108
H -9.277264274909367 3.76237811484339 -14.241714056823204
O -9.585199312836263 5.941560081010058 -3.2708677880539208
H -10.127339323045593 6.630566378567033 -3.683568512740777
H -10.231547893430514 5.289845226727864 -2.9602825254097773
O 4.438659235123538 -3.845075178210588 15.249986422453164
H 4.800288361233237 -4.5379871542968475 15.822755769961713
H 3.8977113283906246 -4.330080252533243 14.608809859888252
O -12.920005400521687 5.2256254292750945 -16.566925407974217
H -13.600324887603131 4.561468717146654 -16.75408473617344
H -13.236295377448432 6.019724805705767 -17.02335587929279
O -7.409917657086845 -10.108068923090027 7.836063283173425
H -6.695129545149674 -10.618115001060335 7.4263093200682455
H -7.997882780088986 -9.893174202057743 7.096415247074138
O 15.134118026021905 2.5411041086249546 -1.2931639365831877
H 15.165625401235122 2.7380793753530193 -2.241412525564254
H 15.864729459239445 1.9188841991308083 -1.1589578928261668
O -17.723529181989438 -8.341789862105175 -8.513247326860219
H -17.617832079700115 -7.624665398082499 -7.8701859125553115
H -18.29789327091947 -7.962021278454539 -9.195041768403682
O -10.35539917343321 -8.752896436548749 -14.433964692576865
H -10.67713287640763 -8.29644939328332 -15.225868018725084
H -10.365331174800827 -8.067874028247756 -13.748685479573624
O -13.943884232825813 -9.896287725335918 -0.6668432416205912
H -13.70323384471286 -10.597175362409372 -0.04249456676119756
H -14.202202716722717 -10.375477416421335 -1.468473296655124
O 14.204459435898908 1.274806725520703 -10.706873715661075
H 14.463461468890774 1.6664112526833597 -9.859211519906308
H 13.30039477313029 0.9615887478181531 -10.553499896914246
O 1.7088413594937988 9.789393258821399 2.829814890683961
H 1.249063144959368 9.635132235110483 1.9909019709460463
H 2.0213364494731705 10.704015812851342 2.7607182431637964
O -6.438925224713687 -4.387039925641352 2.8884126190727946
H -6.687024203158743 -4.644932566040938 1.987909626394675
H -6.807104797342976 -5.090957022593341 3.4433058225067485
O 0.15111356997559 -5.98606522695439 -5.666164423216804
H 0.7422947236326645 -5.223613563630381 -5.756384496122683
H -0.4436261820536722 -5.912491698699029 -6.427632418339534
O -3.6231785867019823 -3.6790318630324306 -6.802158453728796
H -3.0099380107955347 -3.96267886093192 -6.107573877493089
H -4.380527471926775 -4.275409466400612 -6.703576687922
O 10.813870787412565 -13.44526280678577 17.504071473029338
H 11.34402343146401 -13.251119995138204 16.716534743986916
H 10.540015327437455 -14.366522790080552 17.380600122014126