194

C -5.0710522388059704 1.0783507462686561 0.47044029850746183
C -3.8153522388059704 0.1782507462686569 0.19534029850746193
C -4.11845223880597 -1.3219492537313435 0.5608402985074619
C -2.96945223880597 -2.3874492537313436 0.7034402985074619
C -2.52015223880597 0.7359507462686565 0.7384402985074618
C -2.20305223880597 0.7852507462686571 2.097440298507462
C -1.5755522388059702 1.205650746268656 -0.18965970149253808
C -0.9533522388059701 1.2695507462686564 2.508640298507462
H -2.91125223880597 0.4298507462686567 2.840840298507462
C -0.32655223880597006 1.6562507462686575 0.21554029850746192
H -1.7850522388059702 1.178550746268657 -1.2573597014925382
C 0.004447761194029898 1.6956507462686563 1.569740298507462
H -0.7158522388059702 1.2676507462686573 3.5705402985074617
H 0.3943477611940298 1.9193507462686572 -0.5551597014925382
C -1.76045223880597 -2.1592492537313435 -0.1734597014925381
C -0.5287522388059701 -1.936549253731343 0.464840298507462
C -1.8068522388059702 -2.121249253731343 -1.5681597014925381
C 0.6114477611940299 -1.614449253731343 -0.2582597014925381
H -0.4544522388059702 -1.954049253731343 1.5506402985074619
C -0.6479522388059701 -1.8270492537313432 -2.2998597014925384
H -2.74345223880597 -2.290549253731343 -2.092259701492538
C 0.5698477611940298 -1.5506492537313434 -1.6506597014925382
H 1.5072477611940298 -1.351949253731343 0.2991402985074618
H -0.7173522388059701 -1.7640492537313435 -3.3840597014925375
C 1.7791477611940298 -1.082849253731343 -2.4255597014925376
H 1.4739477611940297 -0.9102492537313429 -3.464259701492538
H 2.1252477611940295 -0.1337492537313434 -2.0010597014925384
C 1.3965477611940298 2.0964507462686566 1.997440298507462
H 1.51704776119403 1.8448507462686567 3.057640298507462
H 2.1256477611940294 1.5207507462686571 1.4165402985074618
C 3.94864776119403 -1.4275492537313434 -3.522959701492538
H 4.81734776119403 -2.087049253731343 -3.615159701492538
H 3.4305477611940303 -1.3641492537313429 -4.484459701492538
H 4.26984776119403 -0.441449253731343 -3.176459701492538
C 2.60904776119403 -3.4296492537313434 -2.8992597014925376
H 1.9825477611940296 -3.869549253731343 -2.119359701492538
H 2.06294776119403 -3.373349253731343 -3.845759701492538
H 3.5215477611940305 -4.019849253731343 -3.0234597014925377
C 3.7281477611940304 -2.060049253731343 -1.156659701492538
H 3.9048477611940298 -1.032549253731343 -0.8295597014925382
H 3.12924776119403 -2.623249253731343 -0.4404597014925382
H 4.68244776119403 -2.5769492537313434 -1.3005597014925383
C 3.1110477611940297 3.755250746268656 2.588740298507462
H 3.40124776119403 4.809350746268656 2.534540298507462
H 2.9823477611940303 3.461750746268656 3.634840298507462
H 3.86514776119403 3.1392507462686563 2.091540298507462
C 1.99744776119403 3.9574507462686572 0.40494029850746194
H 2.67914776119403 3.230350746268657 -0.04295970149253803
H 1.03214776119403 3.981150746268657 -0.10175970149253821
H 2.4399477611940297 4.958250746268657 0.368240298507462
C 0.7418477611940297 4.4992507462686575 2.475440298507462
H -0.18475223880597014 4.424250746268656 1.901240298507462
H 0.57844776119403 4.189650746268656 3.511940298507462
H 1.1210477611940297 5.524350746268658 2.4432402985074617
N 3.00114776119403 -2.025349253731343 -2.490159701492538
N 1.7831477611940298 3.586450746268657 1.862540298507462
C -3.55075223880597 -3.8435492537313434 0.6444402985074619
H -2.62515223880597 -2.2736492537313433 1.7424402985074618
H -4.67195223880597 -1.3478492537313436 1.5102402985074619
H -4.83415223880597 -1.6757492537313432 -0.1945597014925382
H -3.7169522388059697 0.17335074626865676 -0.900559701492538
H -3.9132522388059705 -4.043149253731343 -0.34225970149253815
H -4.35435223880597 -3.9354492537313432 1.3449402985074619
H -2.78115223880597 -4.545049253731343 0.8904402985074619
H -5.24235223880597 1.138950746268657 1.5249402985074618
H -5.92805223880597 0.6501507462686567 -0.006059701492538094
H -4.89895223880597 2.059650746268657 0.08004029850746197
C 0.7701570538508817 2.7766170586984487 -2.9176005551531135
O 1.6926551361732158 2.026278218320037 -2.638737844610461
O 0.5484285231114183 3.2469553054522597 -4.039317924367244
O -0.0844345676766356 3.181728935302468 -2.1212300934650004
O -4.524118440366862 3.0039847092823053 3.41580830169206
H -4.311054865901503 3.648962331824491 2.7247401888725813
H -3.6587222762251157 2.728362462153825 3.7535712367169047
O 4.198534042882971 1.9131635135646505 -6.287716231756608
H 3.6799286676270415 1.3293390070829716 -5.713987404446107
H 3.897191126209469 1.6910173497463195 -7.1814754122809275
O 7.765284851579817 -3.5296785660316576 -1.494328793906986
H 7.683634481352055 -3.7390801612794986 -0.5517517170324578
H 7.1546165515858835 -4.1466425748994125 -1.924911635465203
O -2.913832072818029 5.783351799639955 -2.608319272953893
H -2.777676280091441 6.496923148516612 -3.2496030534047504
H -2.100253025926799 5.259978765598018 -2.664281277897363
O 2.3248909869205274 7.481914000231387 3.990048822849378
H 2.3212517930555836 8.18207678245197 3.3201785431973048
H 3.089609825184469 6.93576994041461 3.7536303197006275
O 9.141544345356856 0.11212197326111006 5.469729468779108
H 9.156557175157923 0.02704591091990327 4.504584901650493
H 9.004086015095533 1.0596273188410237 5.619063898296398
O -4.639890247993732 -1.0915421335065993 -7.3062657407185085
H -4.9234286526024365 -1.8905951068625901 -6.837130711347539
H -5.216664401893222 -0.39670986875432224 -6.954837734502802
O 1.1852302022023435 -9.277246116431808 -2.046253164424212
H 1.4861791503709099 -9.387699821162542 -2.9606912796662943
H 0.8872223733368196 -8.356019977625401 -2.007579149702502
O -7.195965350918167 -0.9425704554899731 -2.691751924206063
H -6.29503788291148 -1.1788618249376195 -2.424425451488497
H -7.162053061454283 -0.9490014998216141 -3.6601374582740394
O -2.102252944764203 -7.786739554638792 -6.0745066587966665
H -1.208637088146364 -7.427285399737456 -6.180387574099352
H -2.6026483567732397 -7.388072031216301 -6.802263885973755
O 4.833019588275652 6.917830135159656 -0.2910888130196625
H 4.9263339211284425 7.809499631241544 0.07658672592916771
H 5.147504351120247 6.337900081637027 0.41865931924967903
O -1.459459618070232 -8.355876837549069 1.834006011143648
H -1.7303109673058583 -8.847751743478323 1.0442807548460356
H -1.6255222956751711 -8.972909591304717 2.5624672058543894
O 3.7227568505845934 -7.3625319966781895 3.428019182068045
H 3.9326054365352823 -8.226828888151296 3.0434131352299567
H 3.358765053682669 -7.576596143781501 4.300170807081172
O 6.378585230231115 -1.9136648256396593 2.300304808591994
H 7.0676433529102995 -2.594220378275491 2.268518015007625
H 6.679035517232988 -1.2465258794372454 1.6649960680567935
O 6.653907053678111 -4.9442256928008295 -5.075371057335474
H 6.5829001599071315 -5.131579235051787 -4.127307753466468
H 5.7422051931061535 -5.01271661665052 -5.396417245725625
O -9.386942036114469 -2.6713594573676573 -2.2906817056946083
H -9.677454231430803 -2.344856783912942 -3.1555319964960895
H -9.958325104985388 -2.2065722739828386 -1.661034020819283
O 3.6579820919481087 0.5131810264763925 7.061040791958082
H 3.631722477573301 0.467184934944302 8.028595518635937
H 4.5120250099866945 0.117388192227462 6.830995859813653
O 6.119974330772959 7.1430807784855235 3.688257402354375
H 7.083382516521513 7.188877141066689 3.594904749970989
H 5.828313497513652 8.057705578220022 3.5565099987628237
O -5.780462415847547 8.753491028595606 -2.944697022544304
H -5.539240296190757 8.75327404526078 -2.006198648114961
H -4.994815257521013 9.107060692317095 -3.388215883258612
O 7.753953643970329 2.538443045667762 -10.186167480511894
H 7.538726137257186 3.082218772114952 -9.41354050934089
H 8.272542754730116 1.8063535582880084 -9.820008688497527
C 10.360350039082862 -8.966648946936722 -18.92781957146872
O 10.696234062966626 -8.556929373428236 -17.85444636010015
O 10.0244660151991 -9.376368520445205 -20.00119278283729
O 14.070289032715944 -4.347666323700608 -6.098162747109781
H 14.574714506072523 -5.17422533528637 -6.134528927763807
H 14.7494914810666 -3.6573285165170955 -6.13102139022739
O 6.337500015469774 -18.190619772108903 -3.0545284432231314
H 5.805941749313384 -17.861458654061188 -2.3142135609288523
H 5.722942490254893 -18.749205507715356 -3.553790867684209
O -3.386988826957684 -7.842845630005775 7.002272768652159
H -2.690912110865737 -8.184041060997076 6.420869087819891
H -3.1487906506307497 -8.18363228533122 7.877537316458489
O 4.651317668217338 3.3117095985270293 13.687870846154182
H 4.031194346518188 2.5731577562591905 13.593236819147013
H 5.372054815008751 2.9452093779215405 14.221890974830153
O 9.830276635712325 -17.907740547414186 5.236118909571996
H 10.036139918376769 -17.41776299175858 4.425866072054979
H 10.350078228830732 -17.458746525257467 5.9196191774279034
O 3.79241680379096 6.136469980305522 7.872880611130265
H 4.420811298880637 5.908242690509738 7.17145348046489
H 2.9331891163678527 5.869042498441816 7.5134751751536015
O 8.653858239676492 -10.540635066846322 13.508045803833507
H 8.811346355120598 -10.476400925906184 12.554086252525622
H 9.47724856030643 -10.914154081662463 13.856576820765586
O 5.5659385681579145 3.2961393776802135 4.84936606252569
H 5.095795081346884 2.4764539720194705 5.063954725916727
H 5.973862577511437 3.1137661732738753 3.9895405213794004
O -6.637499086201014 -4.6793252416394155 5.098189807531169
H -6.429811516867904 -5.599251058552389 4.875547219912577
H -6.223179637984282 -4.548878631860895 5.9643797527087115
O -13.519235661021312 8.34968318089498 4.196517135724209
H -14.243028885973498 8.180549250871664 4.818195861536973
H -13.601049912010017 9.293582574296106 3.9932382441192447
O 17.581204764815205 10.536756164705244 -0.04226929338070651
H 17.94173170824039 11.171410099673258 0.5950705396707892
H 16.746704641131203 10.938938240934483 -0.3265597530013573
O 6.082603780569833 0.18742209711704505 12.67174556599922
H 5.118981302142457 0.17478636562042116 12.772935556902606
H 6.247417015035327 -0.4083222672362805 11.92549681766776
O -4.513492025466727 -1.5958167358071438 -9.771788483439316
H -4.841794914973439 -2.50665690880786 -9.732358179235954
H -3.5530247414964906 -1.6964493441841644 -9.85139764656816
O 11.707354746528273 7.955715986385544 -6.8739769759741325
H 11.773438751567994 8.166812783524751 -7.81739544272973
H 10.757052070054113 7.836400803808054 -6.72683536189929
O 11.616617685541392 -16.0010468641191 -7.725966451964163
H 11.817250554396793 -15.994510956404651 -6.7779838093249625
H 12.036634494999866 -16.81253418522906 -8.04851280793505
O -13.306727596518629 -13.467259345683289 11.666775241605261
H -13.761234254197724 -12.618709792900745 11.777926991469696
H -13.949950008095042 -14.12024997380037 11.981147812191628
O -14.31106340415949 3.5022621129771982 -4.963796512493493
H -14.731461263408288 2.630221135996222 -5.0059572917213
H -14.547625874916244 3.9171512445166075 -5.806925891806025
O -14.699133210220374 -10.574070380263265 4.006358688977645
H -14.659242304648672 -9.720922889481438 3.548630132379585
H -15.228559812727541 -11.13158741749905 3.416575533869304
O 16.281537956327803 -0.9055245916701584 5.406887441697124
H 16.771353462499242 -0.7155366302143591 6.221106516219386
H 16.03177147604416 -0.030305354520060224 5.074366861057188
O -6.9104540693809255 -13.048937389950382 -20.311377001525752
H -7.60162454076905 -12.890504805137333 -20.971793425042442
H -6.305320831392667 -13.666162582740139 -20.749336782747143