194

C -5.0710522388059704 1.0783507462686561 0.47044029850746183
C -3.8153522388059704 0.1782507462686569 0.19534029850746193
C -4.11845223880597 -1.3219492537313435 0.5608402985074619
C -2.96945223880597 -2.3874492537313436 0.7034402985074619
C -2.52015223880597 0.7359507462686565 0.7384402985074618
C -2.20305223880597 0.7852507462686571 2.097440298507462
C -1.5755522388059702 1.205650746268656 -0.18965970149253808
C -0.9533522388059701 1.2695507462686564 2.508640298507462
H -2.91125223880597 0.4298507462686567 2.840840298507462
C -0.32655223880597006 1.6562507462686575 0.21554029850746192
H -1.7850522388059702 1.178550746268657 -1.2573597014925382
C 0.004447761194029898 1.6956507462686563 1.569740298507462
H -0.7158522388059702 1.2676507462686573 3.5705402985074617
H 0.3943477611940298 1.9193507462686572 -0.5551597014925382
C -1.76045223880597 -2.1592492537313435 -0.1734597014925381
C -0.5287522388059701 -1.936549253731343 0.464840298507462
C -1.8068522388059702 -2.121249253731343 -1.5681597014925381
C 0.6114477611940299 -1.614449253731343 -0.2582597014925381
H -0.4544522388059702 -1.954049253731343 1.5506402985074619
C -0.6479522388059701 -1.8270492537313432 -2.2998597014925384
H -2.74345223880597 -2.290549253731343 -2.092259701492538
C 0.5698477611940298 -1.5506492537313434 -1.6506597014925382
H 1.5072477611940298 -1.351949253731343 0.2991402985074618
H -0.7173522388059701 -1.7640492537313435 -3.3840597014925375
C 1.7791477611940298 -1.082849253731343 -2.4255597014925376
H 1.4739477611940297 -0.9102492537313429 -3.464259701492538
H 2.1252477611940295 -0.1337492537313434 -2.0010597014925384
C 1.3965477611940298 2.0964507462686566 1.997440298507462
H 1.51704776119403 1.8448507462686567 3.057640298507462
H 2.1256477611940294 1.5207507462686571 1.4165402985074618
C 3.94864776119403 -1.4275492537313434 -3.522959701492538
H 4.81734776119403 -2.087049253731343 -3.615159701492538
H 3.4305477611940303 -1.3641492537313429 -4.484459701492538
H 4.26984776119403 -0.441449253731343 -3.176459701492538
C 2.60904776119403 -3.4296492537313434 -2.8992597014925376
H 1.9825477611940296 -3.869549253731343 -2.119359701492538
H 2.06294776119403 -3.373349253731343 -3.845759701492538
H 3.5215477611940305 -4.019849253731343 -3.0234597014925377
C 3.7281477611940304 -2.060049253731343 -1.156659701492538
H 3.9048477611940298 -1.032549253731343 -0.8295597014925382
H 3.12924776119403 -2.623249253731343 -0.4404597014925382
H 4.68244776119403 -2.5769492537313434 -1.3005597014925383
C 3.1110477611940297 3.755250746268656 2.588740298507462
H 3.40124776119403 4.809350746268656 2.534540298507462
H 2.9823477611940303 3.461750746268656 3.634840298507462
H 3.86514776119403 3.1392507462686563 2.091540298507462
C 1.99744776119403 3.9574507462686572 0.40494029850746194
H 2.67914776119403 3.230350746268657 -0.04295970149253803
H 1.03214776119403 3.981150746268657 -0.10175970149253821
H 2.4399477611940297 4.958250746268657 0.368240298507462
C 0.7418477611940297 4.4992507462686575 2.475440298507462
H -0.18475223880597014 4.424250746268656 1.901240298507462
H 0.57844776119403 4.189650746268656 3.511940298507462
H 1.1210477611940297 5.524350746268658 2.4432402985074617
N 3.00114776119403 -2.025349253731343 -2.490159701492538
N 1.7831477611940298 3.586450746268657 1.862540298507462
C -3.55075223880597 -3.8435492537313434 0.6444402985074619
H -2.62515223880597 -2.2736492537313433 1.7424402985074618
H -4.67195223880597 -1.3478492537313436 1.5102402985074619
H -4.83415223880597 -1.6757492537313432 -0.1945597014925382
H -3.7169522388059697 0.17335074626865676 -0.900559701492538
H -3.9132522388059705 -4.043149253731343 -0.34225970149253815
H -4.35435223880597 -3.9354492537313432 1.3449402985074619
H -2.78115223880597 -4.545049253731343 0.8904402985074619
H -5.24235223880597 1.138950746268657 1.5249402985074618
H -5.92805223880597 0.6501507462686567 -0.006059701492538094
H -4.89895223880597 2.059650746268657 0.08004029850746197
C 4.689137477842635 0.7238507112240624 2.0849884986333325
O 4.885036515245677 0.6238320211933877 0.8835746118361517
O 5.302454223895095 1.4806858632818347 2.8463521343037734
O 3.847247212661765 0.08370159360105811 2.7253620404042054
O -7.156758693980551 -1.1095655934046311 7.168590796433485
H -6.794249511362835 -0.28299812835652216 6.815971064793606
H -7.91667662137246 -1.2947071968392343 6.596568703673032
O -2.9833747442511225 -2.561561951947876 -7.531998870486418
H -2.165088582724353 -3.0637805248145424 -7.662963063384919
H -3.614320452368 -3.222236013906571 -7.208921106528748
O -6.313307015908287 5.030382159400906 -2.726190505065396
H -6.598944422490466 5.523285951245149 -3.5100428386375904
H -5.4104652753910845 5.34479678061429 -2.568132978047188
O 3.693484029537998 -0.43367805316947194 -9.619817248076563
H 4.28486229499299 -1.1646804419600967 -9.385563941526058
H 3.7398476395158147 -0.39583524784492363 -10.586967847546468
O -1.0047155243598735 6.516786714029171 3.043990109862534
H -0.9385869420946954 6.620050583737629 4.005203374814924
H -1.7706237744216984 5.935626639455622 2.9231618660248473
O -4.3759118917419 -6.260864163609364 -8.418646359353442
H -4.691892280875404 -5.409062738177532 -8.081662558236328
H -5.140368932563405 -6.848575474439649 -8.32292388466448
O -9.306108583382862 1.5634470327589511 -1.0274537589057307
H -9.030068120367208 0.7068617737356817 -1.3866622132914017
H -8.475329661636898 1.982553165630331 -0.7570496596908467
O 6.52282196174721 -7.781300431945527 -2.123667125468837
H 6.907565664646416 -7.9920318769934235 -2.9876878995520952
H 6.833096286589074 -8.496761219915623 -1.5485083225968506
O -0.013063279763334767 9.620682647592169 -1.5388500777155545
H 0.40825631646482824 8.848685954055924 -1.132059886212313
H -0.8207254716318082 9.747741472521877 -1.0187541412445094
O -10.579200652692414 -3.814326876228498 -2.9677514801609943
H -10.906207423409988 -3.2954023955817022 -2.21758395741003
H -9.62145901682345 -3.853218657087174 -2.8256939826303094
O 0.823185536548398 2.4370950672733276 12.143282835466445
H 1.5792676764958082 2.0807776970162593 11.653032811289357
H 0.7498520014102048 3.350703963993536 11.828794487895639
O 1.971653966277332 -0.6655099043225704 6.303409290837978
H 1.860058295912947 -0.9708957369582438 7.216236359061386
H 2.855961758243538 -0.2694035135111965 6.29557344204927
O -2.257753505057225 -3.10112510359831 7.033183514754323
H -2.027356768549081 -3.722813819556916 7.739857301699995
H -1.4023299348634002 -2.85336437377784 6.65131039365822
O -4.969763730667025 4.2184386711769655 3.2204070843362453
H -5.006365746419731 4.1371053110524985 4.185296991980482
H -5.886216325413222 4.404111645505295 2.966237588749082
O -1.3739702073454767 7.194965817730899 8.927426144620597
H -1.2854238346032014 6.232464685306003 8.996117241969374
H -1.7567401660028779 7.332624971752842 8.047938191113914
O 0.3006484993034547 2.8383146199196876 5.842762367367669
H 1.2166927085967836 3.1444938927710293 5.7647584162088625
H -0.20608409024095597 3.4816787056409586 5.3248176983173465
O 2.3435942594690062 6.729966914153282 4.182622315170693
H 1.8677547000499857 7.206362993718024 3.485778827745248
H 2.468505316823828 7.3942575386797 4.876940065351978
O 4.423832137297363 0.4107342249954666 -5.475729914882902
H 5.171081740308088 0.33312836687211167 -6.087745207571944
H 3.64719125904817 0.2534682846023093 -6.033455935904494
O -1.25546753305031 10.608451488626386 7.113091435531269
H -1.9130856871011197 10.725480161057781 7.815095716281573
H -1.5577848324367247 9.819692841118695 6.638300965140868
O -5.275496744602561 8.804030475327195 2.6671769664776406
H -5.544711863926556 8.80536284326704 1.7363231641955408
H -4.632801765299153 9.526835137910565 2.7259862142702462
C -12.354090931093518 12.966571490711095 -6.422185067603638
O -12.793891873600062 14.007800364150079 -6.028185294269515
O -11.914289988586976 11.925342617272111 -6.816184840937763
O 9.805060741001135 -7.2252826549530935 10.838447270617534
H 9.620213100571174 -8.16201874898534 10.67314694737319
H 10.772313058013339 -7.170550118504793 10.818717876595974
O 10.339434095791876 7.091810625587519 13.285463589184918
H 10.452192235294518 6.241179983851232 12.835263111380623
H 9.820862469414172 6.872333384551545 14.07405420115238
O -4.635758193293301 12.604271501680897 -10.15607752539696
H -3.914633952305677 13.006441886181827 -9.648922551261444
H -4.19529730820509 11.929994815712861 -10.694879069351016
O -7.37623891669345 -10.310499010766831 6.126097812594711
H -7.4553752306017245 -10.152308862543975 7.0788205832506055
H -8.254362816655332 -10.092875701084713 5.7789660570627
O 2.55153167950487 9.606044871648917 -4.051121593130519
H 1.832103886068162 9.138813514464625 -3.6004711012917614
H 3.3033308583651304 9.517283230616547 -3.446240356815257
O 17.079166395869056 0.3282405573900764 -9.93472386004492
H 17.90488415987176 0.8320253909249562 -9.8767723923274
H 16.493662289097585 0.7644130847285258 -9.297620719533962
O -15.130370131188943 12.445213943494913 1.9933107494425175
H -15.24924203016784 12.585938502074779 1.0419783011650217
H -15.879409242926098 12.911213271840314 2.394243386389979
O -1.5732071049529992 11.658226320518919 18.362123060287168
H -1.2559933995349324 10.75809506756326 18.194472979919116
H -0.9014051369653906 12.223345986364262 17.951898946682384
O 8.511123894573052 -14.918997271687498 4.136097428968482
H 8.28006832168027 -14.77721223834218 3.205786898309791
H 9.417732443632575 -14.584080341841501 4.205764732452398
O 13.807578995594675 7.916017363289403 14.82144806919434
H 13.111543134056735 7.253218184843523 14.944731017750126
H 14.06066119152264 8.160373466534757 15.724333134532682
O -11.885470421505522 8.829027777218467 -0.5878998088675806
H -11.865286405647934 8.8188654450182 -1.5566395517335958
H -10.955305473686533 8.929143894100314 -0.3354480762741969
O 14.91967925677749 -8.71621173477639 4.637490199746087
H 14.81701333464149 -7.8614266941093955 5.082203140398695
H 15.504650943879778 -8.52225226763062 3.8897270054838704
O -7.346180395561385 -3.5635778281185577 -5.57926083594017
H -8.169895678390178 -3.8604916544232433 -5.994354403083047
H -7.532713834496973 -2.6497685649451648 -5.3163542917132105
O -7.300449776251492 -2.4201274974444016 -9.181328559120452
H -7.024141172765025 -2.5297995194300262 -10.103604526568885
H -7.773275990163162 -1.574323881395424 -9.177646329302817
O -8.103669969315487 -13.456242878824353 -15.721470629825983
H -8.022484372679576 -13.44128520376734 -14.755990167177588
H -7.186775714724771 -13.4917098062509 -16.032933255605474
O 3.903618633788926 13.611992558786893 2.1028960090259368
H 4.043833644477831 14.122233022279485 2.9146606159732826
H 4.4945788477443775 12.850247868174574 2.2002253270429977
O 17.398230836366565 15.489534462935293 8.95129212475428
H 17.370426615159488 15.693800540323936 9.89811293769162
H 17.756378127319593 14.589827353398125 8.916369648735596
O -12.322826483048704 -8.681896078183247 12.636251004139282
H -12.245463606848777 -7.74756009444048 12.391304863590973
H -13.193777728315204 -8.742305145469041 13.056675334142188
O -16.223624334509413 4.82959514810339 -0.14745273177506446
H -16.832269841986975 4.3067376046037324 -0.6907187737221809
H -16.13791422940317 4.3150856774385975 0.6691841072047309
O 8.295110612794085 -9.060271511477197 -6.02004747017304
H 7.817020727219514 -8.460940211458281 -5.427426671492354
H 7.728972271708826 -9.11455432106045 -6.804587271353948