194

C -5.0710522388059704 1.0783507462686561 0.47044029850746183
C -3.8153522388059704 0.1782507462686569 0.19534029850746193
C -4.11845223880597 -1.3219492537313435 0.5608402985074619
C -2.96945223880597 -2.3874492537313436 0.7034402985074619
C -2.52015223880597 0.7359507462686565 0.7384402985074618
C -2.20305223880597 0.7852507462686571 2.097440298507462
C -1.5755522388059702 1.205650746268656 -0.18965970149253808
C -0.9533522388059701 1.2695507462686564 2.508640298507462
H -2.91125223880597 0.4298507462686567 2.840840298507462
C -0.32655223880597006 1.6562507462686575 0.21554029850746192
H -1.7850522388059702 1.178550746268657 -1.2573597014925382
C 0.004447761194029898 1.6956507462686563 1.569740298507462
H -0.7158522388059702 1.2676507462686573 3.5705402985074617
H 0.3943477611940298 1.9193507462686572 -0.5551597014925382
C -1.76045223880597 -2.1592492537313435 -0.1734597014925381
C -0.5287522388059701 -1.936549253731343 0.464840298507462
C -1.8068522388059702 -2.121249253731343 -1.5681597014925381
C 0.6114477611940299 -1.614449253731343 -0.2582597014925381
H -0.4544522388059702 -1.954049253731343 1.5506402985074619
C -0.6479522388059701 -1.8270492537313432 -2.2998597014925384
H -2.74345223880597 -2.290549253731343 -2.092259701492538
C 0.5698477611940298 -1.5506492537313434 -1.6506597014925382
H 1.5072477611940298 -1.351949253731343 0.2991402985074618
H -0.7173522388059701 -1.7640492537313435 -3.3840597014925375
C 1.7791477611940298 -1.082849253731343 -2.4255597014925376
H 1.4739477611940297 -0.9102492537313429 -3.464259701492538
H 2.1252477611940295 -0.1337492537313434 -2.0010597014925384
C 1.3965477611940298 2.0964507462686566 1.997440298507462
H 1.51704776119403 1.8448507462686567 3.057640298507462
H 2.1256477611940294 1.5207507462686571 1.4165402985074618
C 3.94864776119403 -1.4275492537313434 -3.522959701492538
H 4.81734776119403 -2.087049253731343 -3.615159701492538
H 3.4305477611940303 -1.3641492537313429 -4.484459701492538
H 4.26984776119403 -0.441449253731343 -3.176459701492538
C 2.60904776119403 -3.4296492537313434 -2.8992597014925376
H 1.9825477611940296 -3.869549253731343 -2.119359701492538
H 2.06294776119403 -3.373349253731343 -3.845759701492538
H 3.5215477611940305 -4.019849253731343 -3.0234597014925377
C 3.7281477611940304 -2.060049253731343 -1.156659701492538
H 3.9048477611940298 -1.032549253731343 -0.8295597014925382
H 3.12924776119403 -2.623249253731343 -0.4404597014925382
H 4.68244776119403 -2.5769492537313434 -1.3005597014925383
C 3.1110477611940297 3.755250746268656 2.588740298507462
H 3.40124776119403 4.809350746268656 2.534540298507462
H 2.9823477611940303 3.461750746268656 3.634840298507462
H 3.86514776119403 3.1392507462686563 2.091540298507462
C 1.99744776119403 3.9574507462686572 0.40494029850746194
H 2.67914776119403 3.230350746268657 -0.04295970149253803
H 1.03214776119403 3.981150746268657 -0.10175970149253821
H 2.4399477611940297 4.958250746268657 0.368240298507462
C 0.7418477611940297 4.4992507462686575 2.475440298507462
H -0.18475223880597014 4.424250746268656 1.901240298507462
H 0.57844776119403 4.189650746268656 3.511940298507462
H 1.1210477611940297 5.524350746268658 2.4432402985074617
N 3.00114776119403 -2.025349253731343 -2.490159701492538
N 1.7831477611940298 3.586450746268657 1.862540298507462
C -3.55075223880597 -3.8435492537313434 0.6444402985074619
H -2.62515223880597 -2.2736492537313433 1.7424402985074618
H -4.67195223880597 -1.3478492537313436 1.5102402985074619
H -4.83415223880597 -1.6757492537313432 -0.1945597014925382
H -3.7169522388059697 0.17335074626865676 -0.900559701492538
H -3.9132522388059705 -4.043149253731343 -0.34225970149253815
H -4.35435223880597 -3.9354492537313432 1.3449402985074619
H -2.78115223880597 -4.545049253731343 0.8904402985074619
H -5.24235223880597 1.138950746268657 1.5249402985074618
H -5.92805223880597 0.6501507462686567 -0.006059701492538094
H -4.89895223880597 2.059650746268657 0.08004029850746197
C -2.461353210898559 1.9472415874870335 -3.465420284589097
O -2.4972542912794675 0.7389633723933227 -3.6402069143908045
O -3.3200107777501784 2.7488104659516837 -3.851199988650083
O -1.5607960594220338 2.555418266947378 -2.8757031253635272
O -0.06562160220596125 -6.990893744956899 2.8731718712990695
H 0.625687623977676 -6.662782456283038 2.278695721282806
H 0.3364613558302141 -6.935124794656328 3.7530474666756266
O -3.078048397885225 5.747472070443402 -6.937620702353725
H -3.0226688890495117 5.75069618038197 -7.905034818446838
H -3.8807277448938873 5.2377902151919375 -6.750826118349877
O 0.9857688415696297 -0.07546297503618515 10.37387503685903
H 1.3446979701084185 -0.663488596696753 9.692433105468622
H 1.555325224925232 -0.23223737275964834 11.141982619621583
O -6.953829129955857 -5.435697885803102 2.0887397497767703
H -6.493750766507043 -4.583065695033204 2.1064486077068474
H -7.618659154890735 -5.357511783715936 2.7893465693878143
O -0.15741074204491223 -6.153185223354264 6.994279921147093
H 0.3517608377409889 -6.940458413473517 7.239050391910592
H -0.6881283153853734 -6.443673114695208 6.23736672491393
O 2.687119881607952 -5.891990004684884 4.435904117900332
H 3.3945636785537214 -5.9954460319025475 5.08995876507845
H 3.099292637277647 -5.379285956529544 3.7244196677619086
O 2.2189057142286863 4.801204512098052 -4.732054255924908
H 2.2878922992345636 4.332634652687002 -5.577424290194362
H 1.6480113853486245 5.558684909866388 -4.930208379145462
O -6.809071803785547 -1.015973834329174 3.555209767204869
H -6.890707567217906 -0.41918064147344625 4.314249189099334
H -7.0739270378673 -0.4707258593465373 2.7992214769140515
O 8.220832173327164 4.460000647992792 -6.048071655318796
H 7.710636506659232 3.6392220014955834 -5.977430646920869
H 8.180814703665376 4.837918517942598 -5.156702691312045
O -7.713926278479955 1.2595998093452958 -3.3314443074715796
H -7.20970678301301 1.9991887783341347 -2.96031331409985
H -8.02249422790386 0.7725115686730621 -2.5526678243346317
O 1.8201143298758553 4.381001634243823 11.097216467365946
H 2.3371469214819776 4.9127368784770304 10.473596161284345
H 1.5704438794086704 3.596986322580493 10.585409275602327
O 10.450276027191297 -4.061507518121711 1.8416765330524676
H 10.952191317750966 -4.607207292164686 1.2177693647879488
H 10.204697615662475 -3.2799980386611796 1.3240897078682208
O -9.161558436835037 0.07952643461626341 -5.296794694715389
H -8.487648747323007 0.5995378481733105 -5.759829485041346
H -9.792602243150156 -0.15838712011461942 -5.992598402154951
O -0.40595403210132686 -2.783585065027392 -7.840416251251475
H -1.0958131702639204 -3.1182659930705983 -8.432911316883
H 0.4208998190734796 -3.0167761898299674 -8.288631101976772
O -5.98143737199272 0.27686906041451254 -5.248687642794637
H -5.432005627154624 0.611958275721777 -5.973123514662485
H -5.655618386467814 -0.6243896414597714 -5.10538137891409
O 5.896075053730388 1.6595376597974307 3.6556055403270804
H 6.588018703339101 1.9851439618819768 3.0604905273178282
H 5.473984125340293 0.9451867876028398 3.155101770245761
O 5.48641449645553 6.656600806340894 -4.28687607643944
H 4.6133105331087805 6.253145024651738 -4.404690584501014
H 6.053100281035036 6.173455860772767 -4.906876179203528
O 0.23103166065078407 8.399033723171542 -3.156511001952723
H 1.145565787417671 8.624728655552639 -2.929230370626118
H -0.06880608367669255 7.857981139412125 -2.4106414604215853
O 1.670894153274483 -2.543715271331708 7.951692702202349
H 1.4125718614933436 -2.8540410626491783 8.832564346491191
H 0.8523705446104517 -2.596128143455306 7.4357140813319065
O -5.650565951449003 6.430075961969587 -1.613728302700682
H -5.691383317619462 5.850074386615789 -0.8385512441482366
H -6.519457306869227 6.8586523117811495 -1.6313937819810125
C 3.5695110887897696 16.77586072826877 -12.721206209032871
O 3.8226923623274605 17.00201572512683 -13.869061346855567
O 3.316329815252079 16.549705731410707 -11.573351071210176
O -21.11389034043159 -2.875840989500931 -3.8630572666365666
H -21.58106983410397 -2.1144842338644425 -4.238618936990049
H -20.505445388075934 -3.1474342556438346 -4.56661521168356
O -13.24827427313264 -7.36217354577899 8.86229734788493
H -12.32911712559203 -7.279566144091918 9.157752102816236
H -13.202480838195218 -7.993664518875615 8.128755217865045
O 12.256328914647256 -1.8057547564934602 14.29978377850614
H 12.070473483652135 -1.2497485997988633 13.52823840110613
H 11.405515190732157 -2.2260550870153963 14.495808225096035
O 11.7847890362454 0.4533001627187172 -0.8060714300320244
H 12.061149603199855 0.4920075449233008 0.12188004094880278
H 11.411150007410177 1.3311043349449165 -0.9758231771610268
O 8.090700713132065 4.7032850469921925 6.497625968042099
H 8.257127197796564 4.383175981200351 7.396958925349954
H 7.565188780540242 5.5067915163598915 6.628685140509583
O 12.304959180449668 14.427111921430193 1.916160916339054
H 11.350089555983688 14.31164017165015 2.0338793608366688
H 12.439362455158626 15.381545612981116 2.0159308140035694
O 3.2114825223643058 -15.798568454985507 6.965386296896719
H 3.0965102156809436 -15.756003000281499 6.004169928090117
H 2.416624035520732 -16.257506692110162 7.276091341428764
O 5.231000920205298 -16.066862956280993 -1.7276348766087124
H 4.848917439365199 -16.39807061166568 -0.9010267109197381
H 6.175046534911519 -15.975640120106057 -1.5290946645252315
O -4.6854311420436 4.387728070799621 -3.044250680632176
H -4.542055638704788 4.862396810237122 -2.211724158686384
H -5.538736721740721 3.9462570458068447 -2.918017301331812
O 5.218767540418022 -5.4093788885521015 10.832860050904248
H 5.5313862570354555 -5.646578512743474 11.71884720273205
H 5.453976959582222 -6.175862994172485 10.288672041786295
O -12.984493154464552 -12.32056627665962 6.612038185064073
H -13.309358273833483 -12.117674348075324 7.502130807453876
H -13.635827932919383 -11.907593015245164 6.0253712982945
O -4.271926476718636 12.981403764515846 13.575985856041367
H -4.812562741872551 12.177266243313195 13.569456484365276
H -4.344489471668826 13.304840856405022 14.486526905996904
O 8.846506452602792 -0.4416339425823379 -23.777469612950703
H 8.397157646019199 -0.7001272036775257 -24.59614796303105
H 9.48741448236982 -1.152799794610842 -23.62766316252644
O -2.97523707322284 -3.889951693725907 -9.285263144462329
H -3.010592394660117 -3.8940419064263856 -8.316913709440994
H -3.8516885940235457 -3.5727210099240545 -9.55013928389497
O -10.879103364033737 -2.4158173258430606 -17.861471238193236
H -11.040852497791215 -2.6437243598685276 -16.933644229279167
H -9.987462027845726 -2.75394830002464 -18.033532611545514
O 4.750297522457695 1.950070315867304 -16.475253483976605
H 4.520309766521364 1.0994784765472074 -16.878448860811986
H 4.2211123941771085 1.9752002739578707 -15.663900583252744
O -5.7963803923427495 -12.899339781583656 -13.34470428159284
H -6.361959456289574 -12.113147341712237 -13.31325389504416
H -5.813278473045562 -13.16268057361607 -14.27708190166976
O 4.383597346544974 -6.563213117914297 -8.183064993561153
H 3.914018905439829 -7.410453121718197 -8.208517311798017
H 3.945239274975896 -6.032080171945823 -8.864755494519681
O 5.016627821505704 4.9148891700357344 15.149789698102685
H 4.787424419369078 4.889547173329943 14.208625025714284
H 5.112993273965887 5.859761784420481 15.34186100376253
O -2.205568443079761 -19.1157879745516 -3.94943744156771
H -2.4947416023409428 -18.4932500932648 -4.633391261080293
H -3.0136688938027483 -19.595154382275375 -3.7124913443487246