194

C -5.0710522388059704 1.0783507462686561 0.47044029850746183
C -3.8153522388059704 0.1782507462686569 0.19534029850746193
C -4.11845223880597 -1.3219492537313435 0.5608402985074619
C -2.96945223880597 -2.3874492537313436 0.7034402985074619
C -2.52015223880597 0.7359507462686565 0.7384402985074618
C -2.20305223880597 0.7852507462686571 2.097440298507462
C -1.5755522388059702 1.205650746268656 -0.18965970149253808
C -0.9533522388059701 1.2695507462686564 2.508640298507462
H -2.91125223880597 0.4298507462686567 2.840840298507462
C -0.32655223880597006 1.6562507462686575 0.21554029850746192
H -1.7850522388059702 1.178550746268657 -1.2573597014925382
C 0.004447761194029898 1.6956507462686563 1.569740298507462
H -0.7158522388059702 1.2676507462686573 3.5705402985074617
H 0.3943477611940298 1.9193507462686572 -0.5551597014925382
C -1.76045223880597 -2.1592492537313435 -0.1734597014925381
C -0.5287522388059701 -1.936549253731343 0.464840298507462
C -1.8068522388059702 -2.121249253731343 -1.5681597014925381
C 0.6114477611940299 -1.614449253731343 -0.2582597014925381
H -0.4544522388059702 -1.954049253731343 1.5506402985074619
C -0.6479522388059701 -1.8270492537313432 -2.2998597014925384
H -2.74345223880597 -2.290549253731343 -2.092259701492538
C 0.5698477611940298 -1.5506492537313434 -1.6506597014925382
H 1.5072477611940298 -1.351949253731343 0.2991402985074618
H -0.7173522388059701 -1.7640492537313435 -3.3840597014925375
C 1.7791477611940298 -1.082849253731343 -2.4255597014925376
H 1.4739477611940297 -0.9102492537313429 -3.464259701492538
H 2.1252477611940295 -0.1337492537313434 -2.0010597014925384
C 1.3965477611940298 2.0964507462686566 1.997440298507462
H 1.51704776119403 1.8448507462686567 3.057640298507462
H 2.1256477611940294 1.5207507462686571 1.4165402985074618
C 3.94864776119403 -1.4275492537313434 -3.522959701492538
H 4.81734776119403 -2.087049253731343 -3.615159701492538
H 3.4305477611940303 -1.3641492537313429 -4.484459701492538
H 4.26984776119403 -0.441449253731343 -3.176459701492538
C 2.60904776119403 -3.4296492537313434 -2.8992597014925376
H 1.9825477611940296 -3.869549253731343 -2.119359701492538
H 2.06294776119403 -3.373349253731343 -3.845759701492538
H 3.5215477611940305 -4.019849253731343 -3.0234597014925377
C 3.7281477611940304 -2.060049253731343 -1.156659701492538
H 3.9048477611940298 -1.032549253731343 -0.8295597014925382
H 3.12924776119403 -2.623249253731343 -0.4404597014925382
H 4.68244776119403 -2.5769492537313434 -1.3005597014925383
C 3.1110477611940297 3.755250746268656 2.588740298507462
H 3.40124776119403 4.809350746268656 2.534540298507462
H 2.9823477611940303 3.461750746268656 3.634840298507462
H 3.86514776119403 3.1392507462686563 2.091540298507462
C 1.99744776119403 3.9574507462686572 0.40494029850746194
H 2.67914776119403 3.230350746268657 -0.04295970149253803
H 1.03214776119403 3.981150746268657 -0.10175970149253821
H 2.4399477611940297 4.958250746268657 0.368240298507462
C 0.7418477611940297 4.4992507462686575 2.475440298507462
H -0.18475223880597014 4.424250746268656 1.901240298507462
H 0.57844776119403 4.189650746268656 3.511940298507462
H 1.1210477611940297 5.524350746268658 2.4432402985074617
N 3.00114776119403 -2.025349253731343 -2.490159701492538
N 1.7831477611940298 3.586450746268657 1.862540298507462
C -3.55075223880597 -3.8435492537313434 0.6444402985074619
H -2.62515223880597 -2.2736492537313433 1.7424402985074618
H -4.67195223880597 -1.3478492537313436 1.5102402985074619
H -4.83415223880597 -1.6757492537313432 -0.1945597014925382
H -3.7169522388059697 0.17335074626865676 -0.900559701492538
H -3.9132522388059705 -4.043149253731343 -0.34225970149253815
H -4.35435223880597 -3.9354492537313432 1.3449402985074619
H -2.78115223880597 -4.545049253731343 0.8904402985074619
H -5.24235223880597 1.138950746268657 1.5249402985074618
H -5.92805223880597 0.6501507462686567 -0.006059701492538094
H -4.89895223880597 2.059650746268657 0.08004029850746197
C 0.40567939681576326 -3.018979726224809 3.540667001756028
O 0.09715266510155263 -1.8978590325245634 3.9143983819943315
O -0.10199878534129603 -4.070459586587759 3.947218881241064
O 1.2733378100170003 -3.2755510075528176 2.6980588840650013
O 0.33208793669509284 -4.310858576879951 -9.010207956298972
H -0.22690456245909463 -4.085434234809592 -9.76894283014589
H 1.1806213053030743 -3.888130157753742 -9.210841329200505
O -7.743860555064762 -7.9625169670302425 3.7774592965085274
H -7.197739286411021 -7.263355610881202 4.167192942595012
H -7.842993597615867 -7.693508606228031 2.851841078238669
O 3.4651124175798915 -9.4890174838152 -2.023638952158757
H 2.788777313134547 -9.996874242697267 -2.4965233945468612
H 3.6397947747818105 -8.733728905367176 -2.605005602086618
O -1.3265139153192145 4.168821796545386 6.383168790741035
H -1.6926306008980974 4.5006411175266 5.549609034236259
H -0.927018080261683 3.319653767207491 6.141759014588368
O 4.808596502500803 0.08193783547302513 3.920463070084895
H 5.073995112844745 -0.6761808109074174 3.3784418043233093
H 5.58082796867493 0.2507291474503952 4.48093608455706
O -2.887410321700412 -2.298010464068395 5.378788682514666
H -3.7162276937042145 -1.9323945797613553 5.722815056368608
H -2.6584915879951927 -1.7085384441020575 4.6445673975224615
O 7.277589544001035 1.7200767683085767 -2.2552363860173013
H 7.574992731926654 1.4973268285140784 -3.1501672017976188
H 7.325932365309733 2.6874444774263466 -2.226519992020977
O -4.153934535039694 8.696403285682107 -5.2712840865731945
H -4.260377394366528 8.952557905504115 -6.1997355313683284
H -3.3150224635740164 9.105211565427311 -5.010392785336581
O -4.2497931711295 2.8044956203262084 -3.4914629887059228
H -4.040878535192158 2.4744385734418906 -2.604679826036958
H -5.120133100604126 3.2178197042180514 -3.3883438676028437
O -6.198650173896468 -10.856648910450264 2.4459957631845546
H -5.848589047395247 -10.46956558818744 1.6295454791876214
H -6.390118746362007 -10.089089229006555 3.0055972870209717
O 3.941533463597737 9.287529084529913 -0.7171626565812286
H 4.340495275259688 8.888787964734263 0.07074745829198825
H 4.498961002926125 10.059573717133434 -0.8965604491161185
O 2.652760541199814 -4.572417190051514 3.6216037931399665
H 3.119865604215116 -4.561322120685813 2.7726885344472962
H 2.9467870823987337 -5.395596606018702 4.039797512005421
O -9.794795444226926 -0.09353065552682932 -4.816547072908071
H -8.87866900635265 0.16799960958395865 -4.993413200696514
H -10.04515243918133 0.43755617179852496 -4.0456838546787335
O -6.896374790213888 -4.03201975943429 0.6196043595808398
H -7.148984378416352 -4.870104380943788 0.20394834791077843
H -7.320167328640121 -4.0655288005472165 1.4903735441745187
O 3.4442259318564665 -3.4090374499352625 5.623018425357575
H 2.851879736909506 -3.788410961213909 6.28947853757133
H 4.32877764895432 -3.6701432095910858 5.920262409912002
O -1.4492916452266809 -5.403558976626295 -1.8368312197482852
H -1.2249453585946033 -5.8764643045760305 -1.021357951411945
H -0.613846662274963 -5.372449634560631 -2.326755533900016
O 4.633818852249819 -2.5173532072474063 -7.126741692934191
H 3.669776753629956 -2.45393211814688 -7.0521229657545055
H 4.92433832385011 -1.5955508734913333 -7.196317826794472
O -0.8947009030607691 1.9292749588254645 -5.737913085546785
H -0.8727053128285802 1.21381516817379 -5.084766211657763
H -0.000883740856112758 2.3022110577509953 -5.706744335706268
O 9.58471162601639 -3.9337712666851656 1.7834754883334432
H 9.12356800675558 -4.172775134050178 0.9654344926005821
H 9.561885503293835 -4.746283886354496 2.3109829814551386
O -4.78312852602124 5.437778580565429 4.341823399097452
H -4.749793483583188 6.102043643382062 5.046527633629122
H -4.400268740980404 5.890331381470821 3.575288147663333
C -16.160792943779903 3.778774496560059 -13.621660498354121
O -16.001195736436284 4.050584750882521 -12.466902439558567
O -16.320390151123522 3.506964242237597 -14.776418557149672
O 10.247754502422682 8.882225542375629 -6.7402063684348725
H 10.350940005240071 9.365926573197825 -7.5734850863257535
H 9.298890290462118 8.690568287027991 -6.696776562620542
O -11.524715488367058 -6.1923998901310675 -8.774948888523983
H -11.714991226656755 -6.533988950515082 -7.8883376918068
H -11.595236628613467 -5.231096684673095 -8.675526254005606
O -2.692058633678432 -15.054447152798028 4.345350701584385
H -3.3065862061034768 -15.310353633891996 3.641195113263531
H -2.6196479178868985 -15.850245156522535 4.89346033460195
O 17.904126225769684 2.413010907440948 -7.613051552143086
H 18.157862493096868 2.941863782291776 -8.384349095445852
H 17.00368603284093 2.7092836170022965 -7.4120742279803915
O -2.248916476202539 -2.782130959468692 11.386443993805749
H -2.3961756833894015 -2.6563359676592726 10.436992729740885
H -2.2421555289969493 -3.7448117039611026 11.49672553385856
O -4.3558772406232436 -15.226670282125976 -13.607151443292109
H -4.315180284030121 -15.15085727258914 -12.641976069482238
H -3.6670989974505273 -15.874050818064038 -13.82032957941412
O -4.9321323986692995 5.860162401617268 -7.969407638713121
H -5.089464756761166 5.76651551904577 -7.017859349144015
H -3.999722874636856 5.619459365756717 -8.077280120473324
O -0.9206363991106188 -3.134958347483695 7.171161895408073
H -1.0589613963932218 -2.572611893790571 7.94807889100383
H -1.3603112982530225 -3.9667563247857656 7.403024036173445
O -0.0029781775818773504 3.4446950805323087 9.0490031725006
H -0.09345190639035139 2.8667975827433896 8.27646427811094
H 0.9498416640091722 3.4524821041328337 9.225172568349741
O 17.750386626419516 6.367067812297118 -1.315649485823732
H 18.158677906461065 5.609885688632615 -0.8696216625380693
H 16.806681247529657 6.27555879591905 -1.1156289816851261
O 5.247320219662296 -7.63791375120003 -4.982603287927291
H 5.354135726334312 -7.71134889853012 -5.942897557185943
H 5.1094035084571265 -8.551923440950622 -4.691867648363825
O 0.1358148601503503 -12.041413891474583 9.32423351459034
H 0.29039802722509866 -12.289024386903435 8.400241932425967
H 0.5646231954124028 -11.17667064072205 9.409699684433885
O -14.273462999162223 16.28657798282864 -2.5715163692717917
H -14.2898317029723 16.504166638648687 -3.515632145696487
H -14.669821005658708 15.403421844730195 -2.527955943135531
O 8.9097324094348 4.177087590462901 -6.561792372300352
H 9.13052369916475 4.930599572776168 -7.129628841532223
H 9.563845583483724 3.5036334181562765 -6.801703559280957
O -8.381732515263765 -14.206045169671118 -0.1698984887469308
H -8.965977696788547 -13.434375488461173 -0.21627550747835578
H -8.175590776233165 -14.399585449611617 -1.0967262439258478
O -11.58873327603838 7.314410035126184 -5.438803028074952
H -11.557248878227428 7.166891476096268 -4.481612156651588
H -10.793079050443986 6.871584801848163 -5.770167042968017
O 12.301865706744028 3.627395863586455 -12.290456088582808
H 11.650011479353221 2.913949664178928 -12.219407206229256
H 12.356311763219058 3.9850679395733293 -11.391529919593632
O 11.215418348481187 -13.873352218087096 7.985718981496101
H 11.304658889714663 -14.024401616083198 8.938707733824987
H 10.402668949296633 -13.351693570999377 7.906519143467499
O 9.253031993719139 -9.341822577746012 6.692772818429048
H 9.467128326269039 -8.484696922448489 6.2946952778424485
H 9.783987317805314 -9.974433054527454 6.185966767961121
O 7.961318196402494 -4.067151180175874 -14.206374344047195
H 7.482632036783818 -4.040188465187071 -13.364293629691403
H 7.646401519851502 -3.2825426251002106 -14.679849630025416