194

C -5.0710522388059704 1.0783507462686561 0.47044029850746183
C -3.8153522388059704 0.1782507462686569 0.19534029850746193
C -4.11845223880597 -1.3219492537313435 0.5608402985074619
C -2.96945223880597 -2.3874492537313436 0.7034402985074619
C -2.52015223880597 0.7359507462686565 0.7384402985074618
C -2.20305223880597 0.7852507462686571 2.097440298507462
C -1.5755522388059702 1.205650746268656 -0.18965970149253808
C -0.9533522388059701 1.2695507462686564 2.508640298507462
H -2.91125223880597 0.4298507462686567 2.840840298507462
C -0.32655223880597006 1.6562507462686575 0.21554029850746192
H -1.7850522388059702 1.178550746268657 -1.2573597014925382
C 0.004447761194029898 1.6956507462686563 1.569740298507462
H -0.7158522388059702 1.2676507462686573 3.5705402985074617
H 0.3943477611940298 1.9193507462686572 -0.5551597014925382
C -1.76045223880597 -2.1592492537313435 -0.1734597014925381
C -0.5287522388059701 -1.936549253731343 0.464840298507462
C -1.8068522388059702 -2.121249253731343 -1.5681597014925381
C 0.6114477611940299 -1.614449253731343 -0.2582597014925381
H -0.4544522388059702 -1.954049253731343 1.5506402985074619
C -0.6479522388059701 -1.8270492537313432 -2.2998597014925384
H -2.74345223880597 -2.290549253731343 -2.092259701492538
C 0.5698477611940298 -1.5506492537313434 -1.6506597014925382
H 1.5072477611940298 -1.351949253731343 0.2991402985074618
H -0.7173522388059701 -1.7640492537313435 -3.3840597014925375
C 1.7791477611940298 -1.082849253731343 -2.4255597014925376
H 1.4739477611940297 -0.9102492537313429 -3.464259701492538
H 2.1252477611940295 -0.1337492537313434 -2.0010597014925384
C 1.3965477611940298 2.0964507462686566 1.997440298507462
H 1.51704776119403 1.8448507462686567 3.057640298507462
H 2.1256477611940294 1.5207507462686571 1.4165402985074618
C 3.94864776119403 -1.4275492537313434 -3.522959701492538
H 4.81734776119403 -2.087049253731343 -3.615159701492538
H 3.4305477611940303 -1.3641492537313429 -4.484459701492538
H 4.26984776119403 -0.441449253731343 -3.176459701492538
C 2.60904776119403 -3.4296492537313434 -2.8992597014925376
H 1.9825477611940296 -3.869549253731343 -2.119359701492538
H 2.06294776119403 -3.373349253731343 -3.845759701492538
H 3.5215477611940305 -4.019849253731343 -3.0234597014925377
C 3.7281477611940304 -2.060049253731343 -1.156659701492538
H 3.9048477611940298 -1.032549253731343 -0.8295597014925382
H 3.12924776119403 -2.623249253731343 -0.4404597014925382
H 4.68244776119403 -2.5769492537313434 -1.3005597014925383
C 3.1110477611940297 3.755250746268656 2.588740298507462
H 3.40124776119403 4.809350746268656 2.534540298507462
H 2.9823477611940303 3.461750746268656 3.634840298507462
H 3.86514776119403 3.1392507462686563 2.091540298507462
C 1.99744776119403 3.9574507462686572 0.40494029850746194
H 2.67914776119403 3.230350746268657 -0.04295970149253803
H 1.03214776119403 3.981150746268657 -0.10175970149253821
H 2.4399477611940297 4.958250746268657 0.368240298507462
C 0.7418477611940297 4.4992507462686575 2.475440298507462
H -0.18475223880597014 4.424250746268656 1.901240298507462
H 0.57844776119403 4.189650746268656 3.511940298507462
H 1.1210477611940297 5.524350746268658 2.4432402985074617
N 3.00114776119403 -2.025349253731343 -2.490159701492538
N 1.7831477611940298 3.586450746268657 1.862540298507462
C -3.55075223880597 -3.8435492537313434 0.6444402985074619
H -2.62515223880597 -2.2736492537313433 1.7424402985074618
H -4.67195223880597 -1.3478492537313436 1.5102402985074619
H -4.83415223880597 -1.6757492537313432 -0.1945597014925382
H -3.7169522388059697 0.17335074626865676 -0.900559701492538
H -3.9132522388059705 -4.043149253731343 -0.34225970149253815
H -4.35435223880597 -3.9354492537313432 1.3449402985074619
H -2.78115223880597 -4.545049253731343 0.8904402985074619
H -5.24235223880597 1.138950746268657 1.5249402985074618
H -5.92805223880597 0.6501507462686567 -0.006059701492538094
H -4.89895223880597 2.059650746268657 0.08004029850746197
C 2.0921367862772122 2.842708139806298 -3.119618771110651
O 2.1185276091543344 2.391156502703095 -4.254158387914439
O 1.1135304039208005 2.8154949999289243 -2.3644893401325495
O 3.0399654515024146 3.3967688621853855 -2.55103639212395
O -6.556255730224697 2.2832883895116476 8.899720018828022
H -6.207389886152214 2.4465447114679693 9.788881057718555
H -7.416063161464477 2.730158700516251 8.89994502438317
O 3.854799341559949 7.24060773612128 -1.6470437551081551
H 3.4413262821204817 6.808347117829282 -0.8847064649985955
H 3.203766459174039 7.903706366576483 -1.9216677464867817
O 7.734234391743918 5.407110648908897 -0.6249834296465049
H 7.687604638805074 4.529243214688281 -0.21737848490738942
H 6.8812787319782105 5.811979200187102 -0.40701544355787345
O -2.5513544707965217 -6.736153095027258 3.8494592686955045
H -2.6117882361301947 -7.669236672741859 4.103762540217746
H -2.1901371928583377 -6.76144018665875 2.9506575189109654
O 5.185011642579191 2.501287003304987 -1.7322381697465588
H 5.201412386312597 1.9401750249175347 -2.5220810150107997
H 6.077083804334427 2.877726063270283 -1.6939911220986106
O 4.355730642163138 0.04779576792366047 -12.010786719478485
H 5.314622012606026 0.14012472799342124 -12.11552477236566
H 4.2424595450330385 -0.8553933845698198 -11.678550421532204
O -2.559207422500485 -3.0978213719540104 6.757790437664851
H -2.8630509379846036 -3.3078260364170218 7.65363892703235
H -1.89784140183483 -2.402437082733538 6.891945651183428
O -8.043397372855573 5.156753469742416 -4.040848570694536
H -7.765122741176103 4.659673526316238 -4.824712153282146
H -7.251818341804577 5.17530722171614 -3.482260761851501
O 4.495441917974286 -7.864500007580448 0.4539013213587826
H 3.698960977710348 -7.32239322904921 0.5573697192721361
H 4.299902404352388 -8.666901809131165 0.9607322515324184
O 5.559619587929083 -0.5347809469427647 8.681540811377516
H 4.6092833456676106 -0.7217075223057652 8.651760969749237
H 5.710184408133506 0.03554881918246 7.91276507223875
O -13.45796717883384 1.3548090906243162 0.20667984429362907
H -12.935361471656318 0.5811242381541186 -0.0526700752815481
H -13.358001063055054 1.3926399604778865 1.1697673508485744
O 3.6726536814770094 3.3304625975927804 -7.551774977134849
H 3.9123115704575513 3.3222152003011556 -6.612912136466784
H 3.454278302175087 2.4065256353674513 -7.745719886448221
O 6.061899143422751 -4.853162220235273 -6.298999925043337
H 6.10335954130691 -4.862065494768439 -7.26707488289003
H 6.206573566281625 -3.9235169423040945 -6.067071244430712
O -8.04545227263577 -3.3640136100018667 3.812917733674995
H -8.144368413540121 -3.106730076596894 4.7418892818976754
H -8.0544850006128 -2.521427172559074 3.33445305413976
O -3.8241317288903383 -4.510975908606231 3.509028026207944
H -3.4947877746976856 -4.136706062283803 4.33994438714359
H -4.78797992256586 -4.477617206935345 3.6030801440536755
O -0.01302208873810562 -2.0565816005469384 -8.329536643503916
H 0.35388729048671874 -2.460092887170225 -9.130488268700141
H -0.357277999108103 -2.8088852786733245 -7.825067627257291
O -10.667951785987212 -4.293945362813283 -0.04519656702634746
H -11.322517465489346 -4.345582776387442 -0.7578288043249998
H -10.289533380520439 -3.4068153893943194 -0.13880140111973455
O -5.74188158197611 -2.7686261672842196 -6.098345939217485
H -5.289336479797203 -2.675148019431459 -5.24662290720068
H -5.051434905489567 -3.092945481927518 -6.695892852336438
O 6.586291005814235 -0.05946164701765966 3.9763073216124676
H 6.901870152352266 0.07625162175762501 3.070239405919247
H 5.6347747117823905 0.1153636689398303 3.921400169143356
O -6.440180442172552 2.747420995082674 5.055563130323023
H -5.499587713994594 2.7505597979909022 5.288464020220528
H -6.728800760404814 3.6548422750846674 5.235137284373794
C -5.196587372338839 14.323064014844505 -11.740754528918275
O -5.91701826048892 13.378874318650862 -11.591411265591654
O -4.476156484188758 15.267253711038144 -11.890097792244896
O -13.077074088602895 -3.9075099771773774 -3.109809834930078
H -13.093815265751925 -3.906003578591741 -4.078667317045465
H -13.981770555405927 -3.6668104942648534 -2.859709842567512
O -5.089403823695922 -2.467588860446853 -10.878839954323825
H -4.7420061284541415 -2.3365883631790565 -9.983786286683559
H -6.051098440430895 -2.456561102988163 -10.760586848620823
O 2.261957774029149 -2.543729663280738 9.435904014912008
H 2.4733485964841257 -2.264856654394605 8.532293965168975
H 3.0801205044566777 -2.3803387957651228 9.928727629658566
O -7.5598301860099575 -0.8100192817261291 -2.3702393279798386
H -7.521653654347678 -0.5815951250171456 -3.3111603203920765
H -7.83177197554563 0.014568067884587865 -1.9400471496849416
O 15.710206430868688 -10.44678161696192 8.694510101033664
H 15.748632108190057 -10.872430708421602 9.564173067453382
H 14.78601723823984 -10.167700018669585 8.611144988290771
O 7.64997074121591 8.945929116229062 12.04236181386041
H 8.470906323445638 8.947687841988321 11.527552107645732
H 7.248519748965336 8.087573339272291 11.839816990954548
O -9.686393888710407 10.088586081849337 0.08459187419981928
H -9.661724510852094 9.872065077546987 -0.8595889524388001
H -10.228528654423343 10.890632048103448 0.12671203707803835
O 15.589259276721206 -1.418135786978699 -2.8989361685791835
H 15.055621301445404 -2.225724921793362 -2.8542410058336753
H 15.526455269427123 -1.0463938444572518 -2.006285324666411
O -11.279121128971443 -14.268292348001589 3.93716795593741
H -11.011400833323025 -14.235587549653925 3.0064566170342237
H -11.991898170005005 -13.614753055686013 3.998789603717197
O 12.480501947917828 7.187375971483159 14.854983987062287
H 11.724562958867574 7.0157036768559315 15.436406574335178
H 12.417116242861816 8.134899559402267 14.662258153216776
O -0.2215783760229637 17.37391850728405 10.060468687334748
H -0.8446542256026286 17.245793467552275 9.329491384838759
H 0.23260757961653233 18.200653947922586 9.838690480127555
O 19.07237868397485 7.81889044223892 -8.352116003582832
H 18.61229836964343 7.940925074176599 -7.508077491503829
H 18.6401587671828 8.449411507610765 -8.947591505976195
O -11.315443762793606 -6.589034877540776 2.8451590436361003
H -10.95396440527 -6.80337145771265 3.7182912566396906
H -11.81151620320427 -5.769682778889622 2.991911272242543
O -1.1152182591225233 -0.4815617660825673 8.987866894687059
H -1.4903090295209225 -1.1900764787046532 9.532184056698311
H -1.8399313753166682 0.1558469552307553 8.901478437646286
O 14.98090480970281 -13.080947744449093 -0.37004775312537586
H 14.906918342622319 -13.401770113514646 0.541306386107073
H 14.361288629350742 -12.336870002658747 -0.4072774122440652
O 5.771784899739474 -10.510525491630833 -4.600228013649134
H 5.69152349224429 -10.00353416286033 -3.7783489131006327
H 6.605019519901234 -10.994173757335671 -4.496466907522658
O -1.5170679845694597 9.65977481905993 9.81576724757475
H -1.4165541802473625 9.685839258346155 10.779190818516106
H -2.472548231388652 9.568898123702088 9.682497339196399
O 7.751489880169725 4.062664328317538 -9.349238543486862
H 7.521051848138811 3.882533012180771 -8.425432081482748
H 6.964308684963135 3.790129996921201 -9.844246370115366
O 17.275220733788387 6.98407393005855 3.4084764076747627
H 17.019381263640856 6.434503559462124 4.164443291987256
H 17.344884691296325 7.876092958795806 3.780512601740572
O 5.523193539212669 -9.71665786215204 10.071761411735428
H 5.934826042929723 -10.590281902634185 9.992344318642806
H 5.5884873465665486 -9.3451421514817 9.179195033393546