194

C -5.0710522388059704 1.0783507462686561 0.47044029850746183
C -3.8153522388059704 0.1782507462686569 0.19534029850746193
C -4.11845223880597 -1.3219492537313435 0.5608402985074619
C -2.96945223880597 -2.3874492537313436 0.7034402985074619
C -2.52015223880597 0.7359507462686565 0.7384402985074618
C -2.20305223880597 0.7852507462686571 2.097440298507462
C -1.5755522388059702 1.205650746268656 -0.18965970149253808
C -0.9533522388059701 1.2695507462686564 2.508640298507462
H -2.91125223880597 0.4298507462686567 2.840840298507462
C -0.32655223880597006 1.6562507462686575 0.21554029850746192
H -1.7850522388059702 1.178550746268657 -1.2573597014925382
C 0.004447761194029898 1.6956507462686563 1.569740298507462
H -0.7158522388059702 1.2676507462686573 3.5705402985074617
H 0.3943477611940298 1.9193507462686572 -0.5551597014925382
C -1.76045223880597 -2.1592492537313435 -0.1734597014925381
C -0.5287522388059701 -1.936549253731343 0.464840298507462
C -1.8068522388059702 -2.121249253731343 -1.5681597014925381
C 0.6114477611940299 -1.614449253731343 -0.2582597014925381
H -0.4544522388059702 -1.954049253731343 1.5506402985074619
C -0.6479522388059701 -1.8270492537313432 -2.2998597014925384
H -2.74345223880597 -2.290549253731343 -2.092259701492538
C 0.5698477611940298 -1.5506492537313434 -1.6506597014925382
H 1.5072477611940298 -1.351949253731343 0.2991402985074618
H -0.7173522388059701 -1.7640492537313435 -3.3840597014925375
C 1.7791477611940298 -1.082849253731343 -2.4255597014925376
H 1.4739477611940297 -0.9102492537313429 -3.464259701492538
H 2.1252477611940295 -0.1337492537313434 -2.0010597014925384
C 1.3965477611940298 2.0964507462686566 1.997440298507462
H 1.51704776119403 1.8448507462686567 3.057640298507462
H 2.1256477611940294 1.5207507462686571 1.4165402985074618
C 3.94864776119403 -1.4275492537313434 -3.522959701492538
H 4.81734776119403 -2.087049253731343 -3.615159701492538
H 3.4305477611940303 -1.3641492537313429 -4.484459701492538
H 4.26984776119403 -0.441449253731343 -3.176459701492538
C 2.60904776119403 -3.4296492537313434 -2.8992597014925376
H 1.9825477611940296 -3.869549253731343 -2.119359701492538
H 2.06294776119403 -3.373349253731343 -3.845759701492538
H 3.5215477611940305 -4.019849253731343 -3.0234597014925377
C 3.7281477611940304 -2.060049253731343 -1.156659701492538
H 3.9048477611940298 -1.032549253731343 -0.8295597014925382
H 3.12924776119403 -2.623249253731343 -0.4404597014925382
H 4.68244776119403 -2.5769492537313434 -1.3005597014925383
C 3.1110477611940297 3.755250746268656 2.588740298507462
H 3.40124776119403 4.809350746268656 2.534540298507462
H 2.9823477611940303 3.461750746268656 3.634840298507462
H 3.86514776119403 3.1392507462686563 2.091540298507462
C 1.99744776119403 3.9574507462686572 0.40494029850746194
H 2.67914776119403 3.230350746268657 -0.04295970149253803
H 1.03214776119403 3.981150746268657 -0.10175970149253821
H 2.4399477611940297 4.958250746268657 0.368240298507462
C 0.7418477611940297 4.4992507462686575 2.475440298507462
H -0.18475223880597014 4.424250746268656 1.901240298507462
H 0.57844776119403 4.189650746268656 3.511940298507462
H 1.1210477611940297 5.524350746268658 2.4432402985074617
N 3.00114776119403 -2.025349253731343 -2.490159701492538
N 1.7831477611940298 3.586450746268657 1.862540298507462
C -3.55075223880597 -3.8435492537313434 0.6444402985074619
H -2.62515223880597 -2.2736492537313433 1.7424402985074618
H -4.67195223880597 -1.3478492537313436 1.5102402985074619
H -4.83415223880597 -1.6757492537313432 -0.1945597014925382
H -3.7169522388059697 0.17335074626865676 -0.900559701492538
H -3.9132522388059705 -4.043149253731343 -0.34225970149253815
H -4.35435223880597 -3.9354492537313432 1.3449402985074619
H -2.78115223880597 -4.545049253731343 0.8904402985074619
H -5.24235223880597 1.138950746268657 1.5249402985074618
H -5.92805223880597 0.6501507462686567 -0.006059701492538094
H -4.89895223880597 2.059650746268657 0.08004029850746197
C 0.5101301413329673 2.2475738275145503 -3.61915408713921
O 0.4220256240022191 2.5851377467727636 -4.789651286213582
O 1.1369981431854688 2.8591840335229235 -2.7464565861345105
O -0.013950845069610529 1.242102836273368 -3.1261879728232516
O -5.772342716740598 -8.260090181109497 -2.710056809442938
H -5.259417622930634 -7.838489696623313 -3.415838812983023
H -5.693686661943631 -7.645936275519384 -1.9646776109190007
O -1.1094293195136484 -9.633931712314798 -2.4777310516081448
H -0.8042168441245598 -9.887333684521282 -3.36181257627017
H -1.4823397184333904 -8.74847972517448 -2.603725325870032
O 7.338675652762543 0.7267017276680154 -6.103840518820837
H 6.898736573934421 -0.12226854143313526 -5.9467722343004255
H 8.2826716247404 0.5096657494177581 -6.076841753394747
O -2.0198459427725464 -2.856360799763733 -8.779136451402808
H -1.7165082439663255 -1.9942315501963694 -9.10114072842931
H -1.2114314251850118 -3.3891615671931983 -8.739750485878446
O -8.413193737132161 -7.779120908595827 4.211096513685222
H -8.852457906674875 -8.289620627075488 3.5143868297507024
H -9.055446295842245 -7.089309288040825 4.4361154535050344
O -7.829279807590913 1.8110456869485603 2.5166583725670844
H -7.636902927120406 1.4253610459075512 1.648784043861882
H -7.12279987194846 1.4706634718811862 3.0858578037864626
O 9.79978171720022 -2.906896744703375 2.654861156602919
H 9.607323691258134 -3.3939501694793908 1.8395659790356582
H 8.960545456045779 -2.4742338416029677 2.872685063794572
O -0.11997645114587652 4.033646464940094 8.914094083548694
H -0.607663083529296 4.644813671821973 8.341727286182948
H 0.38867080400739606 3.488667671120003 8.295031866633916
O -6.538569113492769 6.681589130449533 3.3501311601062422
H -6.09049074314318 7.205385649685738 2.66908025352077
H -7.264182357700076 7.252283150396149 3.6446743653039135
O -3.642192029599737 2.8214621043643797 -2.851410229424555
H -3.646149554268395 2.7451757097717837 -3.8173978488579303
H -3.6809013481491117 1.9033465769439075 -2.5439571252495106
O 10.781673140283912 -3.7754202501201903 -5.451302386987346
H 10.935780294931707 -3.6700170699698464 -6.402148595057062
H 10.903169328139084 -2.8828745334933945 -5.094143088679407
O -1.2695514897689666 8.042796664636288 3.9251877631673295
H -1.5813392045326111 8.534270944440514 3.1504563193021773
H -1.2548433569213993 7.120878801132621 3.6271725486547686
O 2.8375860336745453 -1.5100843164289102 2.9409786934649893
H 3.0135178459805765 -1.7685672116672557 3.8581493140083643
H 2.406154104658862 -0.6460300482434136 3.0199638601498275
O 3.3634852094687098 -3.333598498091262 7.033567595171979
H 3.8414938124818816 -2.691416033588819 7.579531709955145
H 2.862708547345838 -2.784989971191334 6.411302890094016
O 1.904628961880189 -5.631560803985675 5.485921032840082
H 1.9393235031697735 -5.6364901394697915 4.517551605732643
H 0.9731793262706281 -5.4543928451000765 5.685858610516529
O 4.138850324217282 0.4203522081412187 2.3374174134747694
H 4.632870900122058 0.12682910256274116 3.1176450815142207
H 4.769175416198068 0.3169966484570962 1.6087406325891735
O -4.988377043914326 -2.999208802617163 -5.085668672131201
H -5.95719503011346 -2.991254901842843 -5.102867566849426
H -4.7418884479698695 -3.3603864651554165 -5.950397538570118
O -2.193410441351374 8.829724317093138 8.32947681049352
H -2.772857272819186 8.752165827249247 9.102259708243627
H -1.7132287184140518 9.657964568071275 8.479161625744158
O 7.774167963951171 -0.10440875063802846 3.065067062514285
H 8.108834866088603 0.49157714755264603 2.378214654298669
H 6.8800554228047925 0.22342821213064945 3.2440855920227483
O 2.5535962836122796 7.557326460418711 4.737996159519464
H 2.8042054068902442 7.346223291435826 5.649916044309369
H 1.7534073206777663 7.03194018437966 4.587567342972886
C 0.2216694500554115 10.568398347526427 9.447741477353874
O 0.7201703504776693 10.40737899366624 8.371457185328461
O -0.2768314503668461 10.729417701386614 10.52402576937929
O -11.715788744930093 7.224888604384023 7.262971170376653
H -11.978927140095479 6.347451393395758 7.578929209778915
H -12.396947174205124 7.453530142947403 6.6128110475061845
O -5.305552710147522 21.876122355571493 4.233810648484707
H -6.150445743597767 22.26767983931461 4.501776795324195
H -5.400254162127669 21.74652905790053 3.2781961045960015
O -9.10327689004827 19.46426825368192 2.0220194596329737
H -9.977733845621716 19.050125786327087 1.9693088678844806
H -8.504153609595521 18.792550762668633 1.6631199592343915
O -9.201361952881378 -10.475050551046166 8.57293253881495
H -9.355030241596326 -11.031710601882324 7.794804656171935
H -8.298447774155681 -10.697593626446725 8.845297201991658
O -3.4765904133084504 -0.7941508211118866 -19.2727920928632
H -2.853141242772577 -0.1754984052557358 -19.682117974055046
H -2.90906666508058 -1.4828225153572894 -18.895154651601672
O -14.992233580057604 -3.077612838357398 7.59755989215059
H -15.554126512643565 -2.343933508165426 7.306083770214314
H -14.097608233321319 -2.7054387565073457 7.587870409396175
O 13.395361150550052 -2.8326657929331285 -11.502300449701012
H 12.553559982075548 -2.473600538425414 -11.183850622160987
H 14.019144530801634 -2.6359948039976846 -10.787334184110065
O -6.776951381403368 -16.80890451965993 9.574870424172612
H -6.024905619810667 -16.238146555360387 9.793113122925853
H -7.163531641260304 -16.396052278338534 8.788059980784345
O 3.82864428488776 7.1462963113773315 10.613824481296497
H 3.0362395126235597 7.618893398807545 10.909990020725717
H 3.6690179273711774 6.229488345446596 10.88390692036267
O 9.994490500403472 -6.92019580895111 18.890789671682988
H 10.586632626822135 -6.52199814484732 19.546360933501774
H 9.15511251672649 -7.0211385977618725 19.36430535062664
O 5.843554744974776 8.164125919700362 -5.42579463240829
H 5.714697972674502 7.918617089124588 -4.497307312493973
H 5.50458216793725 9.070431410150773 -5.477465652293521
O 13.40271248559309 3.991298025550268 -2.4396740731246656
H 12.973022886497318 4.501312023279942 -1.7366663011557404
H 13.273014872339402 3.0689531902303147 -2.17242797273234
O 8.596409807912435 3.3247991098631493 8.372450504091253
H 8.619430031983175 3.8815909683859915 9.16518012537862
H 8.790797437124713 2.4357139914581163 8.70517117693852
O 7.243140468660587 6.197842065667537 15.639886871828848
H 7.77100528480325 5.856393641970257 14.902500225127596
H 7.273410017068345 7.1593973692338 15.523882143809768
O -3.196302962518282 1.3669652741648264 19.21420441915309
H -3.089136114042729 2.1453934907170975 18.647166382366255
H -3.0187737067019893 1.701011993029427 20.1063132114229
O 3.5550932303691996 14.044453047053995 5.664665528442368
H 3.520160511731545 14.221589437309396 6.616700066322098
H 2.816927782863993 14.558102393367056 5.303780414532686
O -4.172081631566435 18.81473879284522 -8.185041875266268
H -4.107829375051474 18.819197042210966 -7.218181425953482
H -4.0963320382644275 19.749472234895002 -8.42896263233368
O 4.202415178397892 12.729798240085437 -6.75249150944053
H 4.639807123371898 13.289695985046281 -7.4114074058640576
H 3.2740035300184114 12.723486428973512 -7.029933244754058
O 12.068965267884966 5.125294839544576 2.365460135710429
H 11.143238212689157 5.264734125476856 2.115353235131512
H 12.413266397358562 4.541849812980374 1.6726321790569023
O -3.803078179290056 -13.428252560831968 7.593168487179467
H -4.653069176809776 -13.138067267324786 7.229471970193693
H -3.9352370672754113 -14.371140267374301 7.77333159516169