194

C -5.0710522388059704 1.0783507462686561 0.47044029850746183
C -3.8153522388059704 0.1782507462686569 0.19534029850746193
C -4.11845223880597 -1.3219492537313435 0.5608402985074619
C -2.96945223880597 -2.3874492537313436 0.7034402985074619
C -2.52015223880597 0.7359507462686565 0.7384402985074618
C -2.20305223880597 0.7852507462686571 2.097440298507462
C -1.5755522388059702 1.205650746268656 -0.18965970149253808
C -0.9533522388059701 1.2695507462686564 2.508640298507462
H -2.91125223880597 0.4298507462686567 2.840840298507462
C -0.32655223880597006 1.6562507462686575 0.21554029850746192
H -1.7850522388059702 1.178550746268657 -1.2573597014925382
C 0.004447761194029898 1.6956507462686563 1.569740298507462
H -0.7158522388059702 1.2676507462686573 3.5705402985074617
H 0.3943477611940298 1.9193507462686572 -0.5551597014925382
C -1.76045223880597 -2.1592492537313435 -0.1734597014925381
C -0.5287522388059701 -1.936549253731343 0.464840298507462
C -1.8068522388059702 -2.121249253731343 -1.5681597014925381
C 0.6114477611940299 -1.614449253731343 -0.2582597014925381
H -0.4544522388059702 -1.954049253731343 1.5506402985074619
C -0.6479522388059701 -1.8270492537313432 -2.2998597014925384
H -2.74345223880597 -2.290549253731343 -2.092259701492538
C 0.5698477611940298 -1.5506492537313434 -1.6506597014925382
H 1.5072477611940298 -1.351949253731343 0.2991402985074618
H -0.7173522388059701 -1.7640492537313435 -3.3840597014925375
C 1.7791477611940298 -1.082849253731343 -2.4255597014925376
H 1.4739477611940297 -0.9102492537313429 -3.464259701492538
H 2.1252477611940295 -0.1337492537313434 -2.0010597014925384
C 1.3965477611940298 2.0964507462686566 1.997440298507462
H 1.51704776119403 1.8448507462686567 3.057640298507462
H 2.1256477611940294 1.5207507462686571 1.4165402985074618
C 3.94864776119403 -1.4275492537313434 -3.522959701492538
H 4.81734776119403 -2.087049253731343 -3.615159701492538
H 3.4305477611940303 -1.3641492537313429 -4.484459701492538
H 4.26984776119403 -0.441449253731343 -3.176459701492538
C 2.60904776119403 -3.4296492537313434 -2.8992597014925376
H 1.9825477611940296 -3.869549253731343 -2.119359701492538
H 2.06294776119403 -3.373349253731343 -3.845759701492538
H 3.5215477611940305 -4.019849253731343 -3.0234597014925377
C 3.7281477611940304 -2.060049253731343 -1.156659701492538
H 3.9048477611940298 -1.032549253731343 -0.8295597014925382
H 3.12924776119403 -2.623249253731343 -0.4404597014925382
H 4.68244776119403 -2.5769492537313434 -1.3005597014925383
C 3.1110477611940297 3.755250746268656 2.588740298507462
H 3.40124776119403 4.809350746268656 2.534540298507462
H 2.9823477611940303 3.461750746268656 3.634840298507462
H 3.86514776119403 3.1392507462686563 2.091540298507462
C 1.99744776119403 3.9574507462686572 0.40494029850746194
H 2.67914776119403 3.230350746268657 -0.04295970149253803
H 1.03214776119403 3.981150746268657 -0.10175970149253821
H 2.4399477611940297 4.958250746268657 0.368240298507462
C 0.7418477611940297 4.4992507462686575 2.475440298507462
H -0.18475223880597014 4.424250746268656 1.901240298507462
H 0.57844776119403 4.189650746268656 3.511940298507462
H 1.1210477611940297 5.524350746268658 2.4432402985074617
N 3.00114776119403 -2.025349253731343 -2.490159701492538
N 1.7831477611940298 3.586450746268657 1.862540298507462
C -3.55075223880597 -3.8435492537313434 0.6444402985074619
H -2.62515223880597 -2.2736492537313433 1.7424402985074618
H -4.67195223880597 -1.3478492537313436 1.5102402985074619
H -4.83415223880597 -1.6757492537313432 -0.1945597014925382
H -3.7169522388059697 0.17335074626865676 -0.900559701492538
H -3.9132522388059705 -4.043149253731343 -0.34225970149253815
H -4.35435223880597 -3.9354492537313432 1.3449402985074619
H -2.78115223880597 -4.545049253731343 0.8904402985074619
H -5.24235223880597 1.138950746268657 1.5249402985074618
H -5.92805223880597 0.6501507462686567 -0.006059701492538094
H -4.89895223880597 2.059650746268657 0.08004029850746197
C 1.8446408413136197 -0.9237798073965202 3.6702926602228167
O 1.5581828921688077 -1.6665084662838365 2.7439711818800134
O 1.3293615051780991 -0.9545069460017684 4.793758063697651
O 2.6941517959698427 -0.026474680170874176 3.6275956934260973
O 4.210026918893607 9.809414011433972 -3.8325267876148197
H 4.039377290103252 9.504378738424426 -2.9287571580555465
H 4.918965326356917 9.227888876812324 -4.145890468545871
O -9.358682866938896 0.6822407928491536 9.168465919295407
H -9.772100779937341 -0.11467624516578878 9.53312496639763
H -10.007681999181486 1.0105286926830548 8.528161987188932
O -1.2795482630187403 4.757719684357053 -5.70515887576016
H -0.8116071886263438 5.255043644668261 -5.017650776682871
H -2.2159477724272607 4.897344078246213 -5.498705656578269
O -6.107705980905811 -6.6585263811900015 6.219321417843639
H -6.475280341500671 -6.127792718078451 6.941940422003836
H -5.336887621010136 -6.150674447497316 5.924554707049592
O 5.490034224516406 1.5313506147569516 0.22635000544842332
H 4.887583405316719 1.6697428256705162 0.9725858684998333
H 6.368345408277978 1.5115233880807226 0.6351755059516015
O -7.013840144311111 0.8792993837447258 -2.25584068005119
H -7.4183739962496915 0.7865969428839552 -3.1314695837508055
H -7.093293965895304 1.8250209152386265 -2.0602395057078424
O 7.109838476522339 0.20497521356787096 -5.577545471163497
H 7.076215864886434 0.4697841402459303 -4.646034274645497
H 6.359721609303475 -0.4004982128680332 -5.675975952690929
O -3.651570238565953 1.9609926451212036 -6.820961378127796
H -4.057770809864493 2.6620505527139624 -7.352455745904542
H -4.234259953348394 1.8839142704937133 -6.050576042888643
O 7.025658035994297 -0.6698354917073287 3.20879329218359
H 6.771669538348639 0.25255636076482924 3.055006197612286
H 7.401319823092687 -0.6633602164690715 4.101988812114492
O 3.318836096381956 -11.487857461531688 -0.7515424531326778
H 4.195529115589304 -11.89589020811594 -0.8138801198199772
H 2.9639894442631807 -11.557080355694666 -1.6505719235638745
O 5.141091792522776 -5.039247893674894 7.079135587315202
H 5.143411699290941 -5.323799768270457 6.1528569005277225
H 5.836837436017927 -4.365958296500866 7.118898160103573
O 1.7773427513214046 5.237710098418471 -1.7773699162606003
H 2.3675416309033985 5.99302242224206 -1.6354687784203135
H 1.6458318047309564 5.220528928018996 -2.7372509623338037
O 5.30633201736764 -6.5966374432066 -6.459534021970024
H 4.460287495371124 -6.165818182871673 -6.6533658785472
H 5.968570432488983 -5.934083340415731 -6.707373257589728
O -7.01587879155974 3.800718255326224 0.1922420585702771
H -7.47812835910859 4.651993996199406 0.21718814447007717
H -6.544564349103047 3.765429510622617 1.0381612894244885
O -4.917198140743536 3.7275706478544164 3.917897947441583
H -4.364082863054544 4.466586850871692 3.6231338075518082
H -5.69566474313933 3.773907087269825 3.3427417707063865
O 0.9585310163995562 6.704507794657252 8.898482174241362
H 1.2633999862424883 7.623753605552077 8.866711003673908
H 1.3198002989981537 6.310039392843176 8.090496326765713
O 3.4740761797843756 -3.9299379893528035 3.479742363098291
H 4.263149322783591 -4.182582352135365 3.9822378932789415
H 3.800043807555564 -3.2722019672371205 2.8472153872651162
O 4.740753232311748 -6.637934041244119 4.372518946526057
H 5.039376114836545 -6.610993763594895 3.451071198483465
H 5.5357340853594135 -6.88362467095903 4.869110833348523
O 9.042540069702243 2.7305692337697085 -6.451057192228064
H 8.460916661541798 3.2669963499145958 -5.8916579456748455
H 8.797533994088148 1.8180163573888501 -6.23615904188423
O 0.34051058938114975 0.13014957959570994 -5.985891059435358
H -0.6256799492634804 0.20350902113811253 -5.97804298513732
H 0.6379720616472486 0.902293704380773 -5.481637088328343
C -15.309362211536563 -10.477070534755006 5.73187767539964
O -14.558050481868918 -10.617896316570196 4.810727828013257
O -16.060673941204204 -10.336244752939816 6.653027522786021
O -9.14221892247215 7.54236986512778 -11.214052856773753
H -9.484533727196236 8.380657080837207 -10.868998548954176
H -9.813064033109217 6.892083275682591 -10.957038978895362
O -11.574973368511516 9.955218054575415 -4.277773153649301
H -11.723072097976875 9.674086576263518 -3.3623501830324862
H -12.129648998190788 9.3558324731313 -4.799341763610449
O 13.839975035738679 -6.8940177218702186 -12.573709694331026
H 13.893944152475356 -6.916113631657634 -13.540956540854358
H 14.725208924168646 -7.160922911986713 -12.283736373896136
O 7.871895943324604 -1.2441891809177514 7.556378256559244
H 8.20297937327598 -0.7725297013118122 6.777347798483639
H 8.426846921004154 -2.0371536650979025 7.603268378135295
O 3.0885806701975937 13.546169986997699 12.898531942706594
H 3.204627705411177 13.451801043193427 11.941142291120883
H 2.2088459758687637 13.175744837277243 13.065307301644108
O 13.30335097935053 -8.8950043834669 -0.6565322192873904
H 13.353679905045823 -8.863966982013817 -1.6237297357489449
H 14.070815378627389 -8.37992871309714 -0.3655727823623326
O 6.383054129633894 -4.511579913084615 14.778512041113146
H 6.078795342516024 -3.6989719829241423 14.34716264769538
H 5.563816953638893 -4.965468168922453 15.027103764588043
O -5.0196895235141215 -9.496509117093117 9.710435099750558
H -4.702834136832319 -9.284795363573338 10.601360072686717
H -5.057783474142653 -8.636746720631116 9.265104417161286
O -14.310912992023901 11.893956217390013 -2.8787531415832595
H -13.804162694272229 11.577368064932472 -2.115900970876436
H -15.067119544777483 12.352957095879809 -2.483238555988569
O 3.030589739133158 -0.5300136116768155 8.112122793766288
H 3.066844333719073 -0.8236553879337142 7.189394519295354
H 2.367544732394138 0.17660298381054018 8.106999287124248
O 8.572842409395667 12.642095180765276 15.545535070048771
H 9.4962260471153 12.747092368972769 15.819953737344164
H 8.194238492635405 12.055461697309957 16.21745930283314
O 10.709703933203967 -8.176935785423762 6.214540018441929
H 10.240516283322867 -8.731213131118176 5.572974020161935
H 10.008993145377367 -7.85169410313546 6.799505132124531
O -10.710936837700647 2.6943170010683826 -8.22338288701912
H -10.808683580430298 3.202741547091471 -9.042478371188677
H -9.91011116795275 2.1684059158269062 -8.368495675542263
O 15.639424862616321 -8.11829788579585 -6.76519284431017
H 15.795317773837773 -8.487608300656666 -7.64739156036355
H 15.890293551083762 -7.18654133889661 -6.853830210905944
O -16.25423230748656 -3.476948598163129 8.069277870828099
H -15.989743184384954 -2.9531817632763815 8.840433603046737
H -16.296262998983586 -4.384574553942501 8.406042610175708
O 14.348276596152063 2.0057457032063177 6.7596539145404595
H 14.457740064280268 1.5294603392658843 7.59639602423823
H 15.146411171110191 2.551396029716967 6.694778142982589
O -7.9147213988230956 6.737975460631807 8.715943055931842
H -8.06707671953595 6.671221671129603 7.761323160508759
H -8.210328560671313 7.6336518792860435 8.938073880516729
O -10.996312084180296 7.844806630027688 2.1462931536555043
H -10.888336681005953 8.26727650493671 1.2809447417405715
H -11.955120388740688 7.737331622507657 2.2362803869977714
O -10.67951382948427 10.31303778208413 8.151397889593577
H -9.966650680513284 9.989350749680787 7.5804161098553
H -11.225949529572098 10.852660921570656 7.560486020276139
O -3.1818244376785065 16.52173872151079 1.4790608560504304
H -3.298349072501666 15.578473303235986 1.2902760127335284
H -4.061633549764267 16.90028413665708 1.3320872554869645