194

C -5.0710522388059704 1.0783507462686561 0.47044029850746183
C -3.8153522388059704 0.1782507462686569 0.19534029850746193
C -4.11845223880597 -1.3219492537313435 0.5608402985074619
C -2.96945223880597 -2.3874492537313436 0.7034402985074619
C -2.52015223880597 0.7359507462686565 0.7384402985074618
C -2.20305223880597 0.7852507462686571 2.097440298507462
C -1.5755522388059702 1.205650746268656 -0.18965970149253808
C -0.9533522388059701 1.2695507462686564 2.508640298507462
H -2.91125223880597 0.4298507462686567 2.840840298507462
C -0.32655223880597006 1.6562507462686575 0.21554029850746192
H -1.7850522388059702 1.178550746268657 -1.2573597014925382
C 0.004447761194029898 1.6956507462686563 1.569740298507462
H -0.7158522388059702 1.2676507462686573 3.5705402985074617
H 0.3943477611940298 1.9193507462686572 -0.5551597014925382
C -1.76045223880597 -2.1592492537313435 -0.1734597014925381
C -0.5287522388059701 -1.936549253731343 0.464840298507462
C -1.8068522388059702 -2.121249253731343 -1.5681597014925381
C 0.6114477611940299 -1.614449253731343 -0.2582597014925381
H -0.4544522388059702 -1.954049253731343 1.5506402985074619
C -0.6479522388059701 -1.8270492537313432 -2.2998597014925384
H -2.74345223880597 -2.290549253731343 -2.092259701492538
C 0.5698477611940298 -1.5506492537313434 -1.6506597014925382
H 1.5072477611940298 -1.351949253731343 0.2991402985074618
H -0.7173522388059701 -1.7640492537313435 -3.3840597014925375
C 1.7791477611940298 -1.082849253731343 -2.4255597014925376
H 1.4739477611940297 -0.9102492537313429 -3.464259701492538
H 2.1252477611940295 -0.1337492537313434 -2.0010597014925384
C 1.3965477611940298 2.0964507462686566 1.997440298507462
H 1.51704776119403 1.8448507462686567 3.057640298507462
H 2.1256477611940294 1.5207507462686571 1.4165402985074618
C 3.94864776119403 -1.4275492537313434 -3.522959701492538
H 4.81734776119403 -2.087049253731343 -3.615159701492538
H 3.4305477611940303 -1.3641492537313429 -4.484459701492538
H 4.26984776119403 -0.441449253731343 -3.176459701492538
C 2.60904776119403 -3.4296492537313434 -2.8992597014925376
H 1.9825477611940296 -3.869549253731343 -2.119359701492538
H 2.06294776119403 -3.373349253731343 -3.845759701492538
H 3.5215477611940305 -4.019849253731343 -3.0234597014925377
C 3.7281477611940304 -2.060049253731343 -1.156659701492538
H 3.9048477611940298 -1.032549253731343 -0.8295597014925382
H 3.12924776119403 -2.623249253731343 -0.4404597014925382
H 4.68244776119403 -2.5769492537313434 -1.3005597014925383
C 3.1110477611940297 3.755250746268656 2.588740298507462
H 3.40124776119403 4.809350746268656 2.534540298507462
H 2.9823477611940303 3.461750746268656 3.634840298507462
H 3.86514776119403 3.1392507462686563 2.091540298507462
C 1.99744776119403 3.9574507462686572 0.40494029850746194
H 2.67914776119403 3.230350746268657 -0.04295970149253803
H 1.03214776119403 3.981150746268657 -0.10175970149253821
H 2.4399477611940297 4.958250746268657 0.368240298507462
C 0.7418477611940297 4.4992507462686575 2.475440298507462
H -0.18475223880597014 4.424250746268656 1.901240298507462
H 0.57844776119403 4.189650746268656 3.511940298507462
H 1.1210477611940297 5.524350746268658 2.4432402985074617
N 3.00114776119403 -2.025349253731343 -2.490159701492538
N 1.7831477611940298 3.586450746268657 1.862540298507462
C -3.55075223880597 -3.8435492537313434 0.6444402985074619
H -2.62515223880597 -2.2736492537313433 1.7424402985074618
H -4.67195223880597 -1.3478492537313436 1.5102402985074619
H -4.83415223880597 -1.6757492537313432 -0.1945597014925382
H -3.7169522388059697 0.17335074626865676 -0.900559701492538
H -3.9132522388059705 -4.043149253731343 -0.34225970149253815
H -4.35435223880597 -3.9354492537313432 1.3449402985074619
H -2.78115223880597 -4.545049253731343 0.8904402985074619
H -5.24235223880597 1.138950746268657 1.5249402985074618
H -5.92805223880597 0.6501507462686567 -0.006059701492538094
H -4.89895223880597 2.059650746268657 0.08004029850746197
C 2.1631244089125894 -0.8683392314899747 2.959210527877868
O 2.433429999947594 -2.034787735433538 3.2002671056828293
O 1.2376458249489097 -0.48667021320711595 2.233642050608092
O 2.773237337299449 0.11093844883782239 3.4035367861915304
O -1.8006433667896005 -0.4567677446821581 -5.7306961336617475
H -1.7711561235177191 -0.5873895409758305 -6.690402237485851
H -0.8680187783024715 -0.4061472491640617 -5.47260528399304
O -7.990275012322845 -1.2731114033423292 -0.9841362026874046
H -7.882969573618387 -0.3147454007862705 -1.0789386544972899
H -8.353081002377218 -1.5535859060062487 -1.8377566167099928
O -2.2229542201969568 1.418539375578502 10.27413120697575
H -2.905240194212064 2.050713531269442 10.545809405288948
H -1.9594259628503485 1.722967457997901 9.392746872809148
O -1.6662019504034986 3.8264428436492235 3.7962935048195354
H -2.504873789817275 3.36432539137272 3.6478200628314545
H -1.885166999292484 4.5032003600112205 4.454332649333435
O -4.920386389606791 3.848376823026968 5.026544050167294
H -4.669268167080115 3.9343105954534865 5.9584895324631155
H -5.684340009741821 3.2525303372334413 5.043973219685276
O -3.1548072390899065 -10.892035323801252 0.7117883153691997
H -3.7356951654637744 -11.258671596967954 1.3952460076161302
H -3.6635544745280377 -10.154207761669833 0.34334743368902587
O -0.2763273654232121 -8.200519605296254 -2.4257795050075135
H -0.09018459267290391 -7.4514243706370085 -3.0115905278328254
H -0.5925309586514633 -8.893299637726308 -3.024973178702216
O 8.277538073054869 -1.2070254768022264 -1.9084542866209568
H 8.70304617879445 -0.5318163465264223 -2.4580021364412503
H 8.160130160468803 -1.9580474137001826 -2.5094063451582618
O 1.4686611584067564 -4.113020857398141 4.688949275872613
H 0.6784768526384088 -4.448790020256777 4.2396885619318025
H 1.5232532995831483 -4.646182816902554 5.496241024473569
O 1.985086181035102 -7.607824012294581 8.54921038079708
H 1.1961782629112125 -7.982517238122183 8.129452545682193
H 2.7007450326396203 -7.8153727808230595 7.929760737079036
O 4.060980672741015 -5.49292695311697 3.751269244756522
H 4.683079899602972 -6.064988996905906 3.277238732137575
H 3.610534025683271 -6.093771539766562 4.363678866781125
O 2.029105456249857 -0.817323090514714 -7.875324680911447
H 1.934697213703679 -1.2049676859380285 -6.99226969492335
H 2.595085654907336 -1.4461912812450426 -8.34771557594987
O 2.300277228882621 10.512305810258082 4.247504683757594
H 2.552621345569625 9.59322313393768 4.422367023216904
H 1.5775784080852144 10.438643408993812 3.6062229910842274
O 5.481644573384398 0.17644888639872258 6.547078486741382
H 5.564121467486539 0.7999772480009926 7.284219790099737
H 5.381478526516554 0.7455448726918685 5.769223445143077
O 0.1691394243439588 -4.249701914699774 -6.434714987832855
H 1.105359418372032 -4.496352521685793 -6.47500093768517
H -0.06887182780039569 -4.385408475293021 -5.505254758686591
O 1.9754617347728833 10.614219437693496 0.9152057034252457
H 1.3544814793956812 9.969099328028223 1.2855716352239626
H 2.240898039391346 11.148610618867892 1.678705263329197
O 5.205009838547923 -8.584280901351413 -3.5629807938424953
H 5.126095161338411 -9.100445454662768 -4.37926137337738
H 5.781433634000008 -9.122867789104792 -3.0002893005029025
O -2.048172435642499 -3.324575436114246 -6.034530580481895
H -2.939098612527701 -3.005837144884648 -6.243393707780027
H -1.948343643172392 -4.11681896979347 -6.583480796655834
O 4.447486417189326 -6.586859881175133 7.995169351426713
H 4.312941397126921 -6.228344312934933 8.885299444056892
H 4.230320398299745 -5.846250037808465 7.409253039614141
O -1.0656481964806543 -5.4400862161105845 -0.3505719601816204
H -1.0760102103244857 -6.334426711122889 0.022275280052564295
H -1.1948660245262621 -5.5810210485302765 -1.3005204167970346
C 7.17971901045519 -4.363756581378207 -3.925463466826142
O 8.083645257529067 -3.588723857501208 -4.048182145399272
O 6.275792763381313 -5.138789305255207 -3.802744788253012
O 6.559429148731699 -5.193322302620494 9.924048108199159
H 7.333889478628889 -5.530261493315459 9.449021228865623
H 6.153437986204512 -4.57328607280234 9.29979800290264
O -5.8221389636593806 17.542598385413545 6.2515910982114375
H -5.30702395427203 17.702104017692825 7.056688506774561
H -5.907103529729463 16.578010701854293 6.215347925912117
O -10.457975798523298 11.905011963267139 -13.807380773893302
H -10.357800200222414 12.258274154184504 -14.704118210868769
H -11.184362399654932 11.268544866376331 -13.886336993229225
O -7.793781366726157 16.165772968136782 -14.698692952106597
H -7.814784265660801 16.12250733844295 -13.730883921138432
H -6.963406758171594 16.625237556269518 -14.894479177413363
O 4.440023977843671 15.836448909773853 7.269412939681368
H 4.089244220172258 16.580733129018654 6.757590783565456
H 3.7111070724457385 15.594492915342386 7.860259270027748
O -17.65589834320613 2.71257078832906 -13.185552885487434
H -17.694593891510156 2.3638849340888815 -14.088818176802368
H -16.71703464750616 2.9113190301195635 -13.0514035598023
O 15.850685441721046 4.733210731785023 2.830854761275943
H 15.95114478538933 4.7340552506101234 3.7946361493291123
H 16.745929225528386 4.561180728794977 2.50236398526303
O 5.4007786431300415 2.847472410971931 14.150299963839704
H 5.421967649021356 2.7845451525909284 15.117025645241615
H 6.329146249722437 2.974967709980473 13.90364133321708
O 3.6475475617394357 11.84935459256484 12.805634853759589
H 3.643176051215982 12.817982297421906 12.832254699346592
H 4.514986422759893 11.609255270864619 13.16461129088412
O -0.337644143377406 -16.75378729439496 -0.17672731327495828
H -0.3315680841195796 -16.570928493027846 0.7748466970713094
H -1.2686222892011214 -16.65743837864288 -0.42764268293579566
O -11.48194664137563 2.847496714156689 -0.07533439308088707
H -11.594605226552549 3.4702616799506902 0.6584497696437741
H -12.158033159324853 2.172097326638497 0.08499224814679229
O 11.35066557521197 -15.287138876414623 -5.346077140254814
H 11.311548232648457 -15.008821262408475 -4.418727963221323
H 12.24186575926511 -15.033138210464777 -5.629287023452214
O 6.343913709191187 13.502884131546052 -5.5078698662630945
H 6.275246762372836 13.382558986679442 -4.5488213446399826
H 6.605002949832755 14.430521155490034 -5.609279454219845
O 0.6163786129958249 8.24576847570795 -10.990583748544633
H 1.201327820780171 7.981413673381261 -11.716475145173142
H 0.12503213639907784 9.000219095086083 -11.348836239332787
O -4.633155991648327 -0.11783508495230854 -8.570049315287044
H -4.675031210088879 -0.004153332290201428 -7.608649147774978
H -4.485763323555883 -1.068375419257213 -8.687140811784907
O -10.238370497021101 17.982747313009504 -6.848719597522472
H -10.548205652166796 18.031717290952166 -7.765546448566955
H -10.703698218836724 18.70790899002936 -6.40535451343078
O -15.721974751758607 -3.201156870456316 -11.76407877449142
H -15.38664096053415 -2.343692711676389 -11.461963197648942
H -14.952052438473808 -3.7867788973207785 -11.707259609966222
O -3.527969417589115 12.557079994270001 -17.00846589072741
H -2.9020297567195987 11.83964940271241 -16.828298623589674
H -3.8860208405159895 12.341289452155086 -17.882648688987477
O 0.20751320534015116 -10.688971753589115 13.171373223923716
H 0.24709793301314598 -11.088723874102806 12.289557682906285
H -0.13787727612244982 -11.397919243045623 13.734454760478013
O -9.038501685434149 -8.777732278359975 -13.039933594481449
H -8.973260100170407 -8.666741368933286 -12.079521229673025
H -8.143958316993308 -9.03758749667779 -13.306821907810287