194

C -5.0710522388059704 1.0783507462686561 0.47044029850746183
C -3.8153522388059704 0.1782507462686569 0.19534029850746193
C -4.11845223880597 -1.3219492537313435 0.5608402985074619
C -2.96945223880597 -2.3874492537313436 0.7034402985074619
C -2.52015223880597 0.7359507462686565 0.7384402985074618
C -2.20305223880597 0.7852507462686571 2.097440298507462
C -1.5755522388059702 1.205650746268656 -0.18965970149253808
C -0.9533522388059701 1.2695507462686564 2.508640298507462
H -2.91125223880597 0.4298507462686567 2.840840298507462
C -0.32655223880597006 1.6562507462686575 0.21554029850746192
H -1.7850522388059702 1.178550746268657 -1.2573597014925382
C 0.004447761194029898 1.6956507462686563 1.569740298507462
H -0.7158522388059702 1.2676507462686573 3.5705402985074617
H 0.3943477611940298 1.9193507462686572 -0.5551597014925382
C -1.76045223880597 -2.1592492537313435 -0.1734597014925381
C -0.5287522388059701 -1.936549253731343 0.464840298507462
C -1.8068522388059702 -2.121249253731343 -1.5681597014925381
C 0.6114477611940299 -1.614449253731343 -0.2582597014925381
H -0.4544522388059702 -1.954049253731343 1.5506402985074619
C -0.6479522388059701 -1.8270492537313432 -2.2998597014925384
H -2.74345223880597 -2.290549253731343 -2.092259701492538
C 0.5698477611940298 -1.5506492537313434 -1.6506597014925382
H 1.5072477611940298 -1.351949253731343 0.2991402985074618
H -0.7173522388059701 -1.7640492537313435 -3.3840597014925375
C 1.7791477611940298 -1.082849253731343 -2.4255597014925376
H 1.4739477611940297 -0.9102492537313429 -3.464259701492538
H 2.1252477611940295 -0.1337492537313434 -2.0010597014925384
C 1.3965477611940298 2.0964507462686566 1.997440298507462
H 1.51704776119403 1.8448507462686567 3.057640298507462
H 2.1256477611940294 1.5207507462686571 1.4165402985074618
C 3.94864776119403 -1.4275492537313434 -3.522959701492538
H 4.81734776119403 -2.087049253731343 -3.615159701492538
H 3.4305477611940303 -1.3641492537313429 -4.484459701492538
H 4.26984776119403 -0.441449253731343 -3.176459701492538
C 2.60904776119403 -3.4296492537313434 -2.8992597014925376
H 1.9825477611940296 -3.869549253731343 -2.119359701492538
H 2.06294776119403 -3.373349253731343 -3.845759701492538
H 3.5215477611940305 -4.019849253731343 -3.0234597014925377
C 3.7281477611940304 -2.060049253731343 -1.156659701492538
H 3.9048477611940298 -1.032549253731343 -0.8295597014925382
H 3.12924776119403 -2.623249253731343 -0.4404597014925382
H 4.68244776119403 -2.5769492537313434 -1.3005597014925383
C 3.1110477611940297 3.755250746268656 2.588740298507462
H 3.40124776119403 4.809350746268656 2.534540298507462
H 2.9823477611940303 3.461750746268656 3.634840298507462
H 3.86514776119403 3.1392507462686563 2.091540298507462
C 1.99744776119403 3.9574507462686572 0.40494029850746194
H 2.67914776119403 3.230350746268657 -0.04295970149253803
H 1.03214776119403 3.981150746268657 -0.10175970149253821
H 2.4399477611940297 4.958250746268657 0.368240298507462
C 0.7418477611940297 4.4992507462686575 2.475440298507462
H -0.18475223880597014 4.424250746268656 1.901240298507462
H 0.57844776119403 4.189650746268656 3.511940298507462
H 1.1210477611940297 5.524350746268658 2.4432402985074617
N 3.00114776119403 -2.025349253731343 -2.490159701492538
N 1.7831477611940298 3.586450746268657 1.862540298507462
C -3.55075223880597 -3.8435492537313434 0.6444402985074619
H -2.62515223880597 -2.2736492537313433 1.7424402985074618
H -4.67195223880597 -1.3478492537313436 1.5102402985074619
H -4.83415223880597 -1.6757492537313432 -0.1945597014925382
H -3.7169522388059697 0.17335074626865676 -0.900559701492538
H -3.9132522388059705 -4.043149253731343 -0.34225970149253815
H -4.35435223880597 -3.9354492537313432 1.3449402985074619
H -2.78115223880597 -4.545049253731343 0.8904402985074619
H -5.24235223880597 1.138950746268657 1.5249402985074618
H -5.92805223880597 0.6501507462686567 -0.006059701492538094
H -4.89895223880597 2.059650746268657 0.08004029850746197
C -0.4933638322603362 3.1155936636364565 -3.5235997828651042
O -1.0967102125959611 3.2477214024171386 -4.577303206310526
O -0.8250042672504945 3.6198934334227086 -2.444559548131908
O 0.5422347490603965 2.4571269726895264 -3.3732482624874
O -4.22944293788105 1.6091680297901703 -5.361800894950047
H -3.7781125447964374 2.107944050720172 -4.664312031868116
H -4.615786671542956 2.294731004203869 -5.927224516558853
O 8.577794380577274 -2.3444403191724423 -2.5653215466460892
H 8.239049353036137 -1.696747861299586 -3.2014926268051727
H 9.52657150201316 -2.153003722982535 -2.5191052315716904
O 4.879429486019925 -7.665972466113706 0.9429628075328891
H 4.82693643403557 -8.024250459226543 1.8417668551675255
H 3.9967694179139253 -7.298401949132257 0.7855936125895919
O -6.256627715425988 -2.837699886004041 2.790449271625236
H -5.946947882874654 -3.4877728116960305 3.4388865850898735
H -6.325789777850803 -3.3433779750196124 1.9667574459339132
O 2.9236611182287318 4.890265095931901 -6.347716999618481
H 3.7322716685304225 5.279507790562949 -5.982194825849012
H 2.4127432130644286 5.6551497465075125 -6.652473147704694
O 1.8240427839854452 -0.9906833879702133 2.302307356465451
H 1.2770136937943763 -0.2462794440950723 2.5948638462718954
H 2.4903787378561932 -1.0799588833858773 3.0001527740168212
O 5.67370392729447 -0.26842173594754515 2.615351792854132
H 5.71592885628871 -0.4791755031964806 1.6704881720803115
H 5.756133948202816 0.6966467631269073 2.643812784531013
O -8.131823790276279 7.835719508048298 1.6729474344399335
H -8.321375562354351 7.059254313498428 2.2207971257373718
H -7.417444449068553 7.540956464477961 1.0883630955282895
O -8.116454894776464 2.221874621766707 7.839283423216647
H -8.43305424824202 2.3660566676217227 6.934880999547705
H -8.156367543638646 1.260129634727119 7.95070830672578
O 7.304981406660534 2.4697822925019017 -6.377635420694652
H 7.957093364817318 1.9314993375702727 -6.850888853179826
H 7.592993620087519 2.4274613584520353 -5.453395274543213
O 1.043764439049276 -3.914328470032324 1.3860591285301183
H 1.4645243998063127 -3.9622216722252803 2.2576293514653916
H 1.6150876684305637 -4.455137647563013 0.8203055201740465
O 7.695567953937358 -3.965372133393481 0.7176367651418462
H 7.400990988062178 -3.9130988188279945 -0.20402438119129074
H 8.196898669703794 -3.146756021329216 0.8499134403264739
O 5.407424957229727 3.3504736453284902 -0.7708652068937931
H 4.866604467872253 3.477740748526055 -1.5647692562819064
H 6.276301324331255 3.6987960622363616 -1.021239520416385
O 5.5158166120123 -5.40967521590636 -5.607351066029491
H 4.583044508911583 -5.290767703654169 -5.841369364688084
H 5.68867112812206 -4.702494838577489 -4.967836269889908
O 1.1415268952805662 5.007088283764881 -8.973537471323482
H 1.326941749236227 4.83772777599327 -9.909435813687622
H 1.678318689311603 5.786647747636671 -8.765923511174199
O -8.666283820198037 4.360940649016786 -6.235579060534092
H -8.479474715004796 4.730473008478029 -7.111658708983882
H -8.573218779272839 3.4045138935360537 -6.360273502504012
O -2.5240898767079663 -3.1715142388734128 4.023209234375961
H -2.7328129815293556 -3.776067338082198 3.2952548589850488
H -1.9265515731202008 -2.521644056220584 3.623736249376683
O 7.964459810091974 -1.52057848008577 -6.534072683707629
H 7.995363581603971 -1.4672040180864339 -5.567034173299374
H 7.816125826049959 -0.6049508304109614 -6.814402811644688
O -9.507340174867934 -1.790686450502064 1.733005958436065
H -8.781463457667185 -2.099303911717189 2.295878600300094
H -9.224278559924038 -0.9086578123271849 1.4486407919955915
O -1.2521401646841968 -0.20047119805613822 -5.493183757170852
H -1.4458328014698463 0.739323481939054 -5.62822626458151
H -2.1266235266124185 -0.6119524547336362 -5.423012755939434
C -13.400067754079423 -5.1336724868340475 -0.2891210542384197
O -14.413188445201154 -4.822994024634927 -0.8457929644751534
O -12.386947062957692 -5.4443509490331685 0.2675508559983144
O -6.530876262373271 -12.889974292794568 9.85804355809554
H -6.528083533034237 -12.629176451522344 10.791287386658361
H -6.33898088587198 -12.066701634646837 9.384376756299384
O -13.030206153636046 -1.5376231371577038 17.324515794055166
H -12.902634577773037 -2.3641404478776407 16.835065096832135
H -12.700595683005055 -0.8549353691157915 16.720979305252406
O -14.776176597706392 9.849915127107359 -4.59186112872402
H -14.51750800472469 9.12634361464195 -5.182201862752587
H -14.081153348649899 10.513518339666627 -4.716502228895569
O -3.6426346331500574 10.827461397202244 9.012071761704709
H -3.999567469543278 11.506619330016699 8.420201159715146
H -4.2124991678747605 10.059169553129262 8.857333276853863
O -14.707991897406313 -1.1608966750028387 -11.262068700100151
H -13.816745693140419 -1.352120226544935 -11.590825621878636
H -15.2830357512334 -1.3573223468382842 -12.016855733586869
O 8.336989565978337 -15.771598196347359 9.27438048926821
H 8.366087254796668 -15.593635646330917 8.322303805278377
H 8.016814116145552 -16.68434467129811 9.332203478548903
O 7.638398973105435 -5.221521713445828 8.874190494930794
H 7.170843963218554 -5.468330924392982 9.686252612641823
H 8.329528760338292 -4.613827317170923 9.177520483945312
O 19.038190338648885 0.0954149670702078 -5.868168035830798
H 19.44187016633405 0.2374620218823802 -6.737554364133277
H 18.282409882447084 0.7017782968921535 -5.859148137237196
O 6.394423741983067 -6.751079962200507 6.693583183560895
H 6.465418590546534 -6.958110241356451 7.637545869205865
H 5.50377882887137 -6.380615719173268 6.601551516801494
O 2.163605350837088 -3.834950871994444 -17.073107562631822
H 1.8745681206187368 -4.643824115300501 -17.521603842116107
H 2.485176107208799 -3.2707127243956187 -17.792266450319914
O 5.414959561276415 9.380210166612578 12.247241934270898
H 5.898980790447256 8.843873754953297 11.601460190846392
H 6.11235231828945 9.829161661321105 12.748288680757428
O 0.6264717038870351 0.8679799624126727 -6.704432524262593
H 0.955625736067951 0.06624429724896075 -6.271021745435457
H 0.46418444186918584 1.4805362831898443 -5.971357123800482
O -7.470445414477721 15.283296183381989 -13.441847389042483
H -7.507314321092338 15.440111969082578 -14.39736654111645
H -6.816406722182958 15.924022311215833 -13.124569336866786
O 0.35240718969283336 12.355773327006723 7.560320064714618
H 0.2917874701083205 12.882199232886421 6.749044296485198
H -0.10663192096883467 12.89340102117945 8.223042858680135
O 13.893940775080738 7.2969556723936435 0.5058186140460892
H 14.030829686245298 7.893930169886332 1.2567182293366637
H 13.598841859355172 7.882310395769389 -0.20779081838827818
O 10.084156588131396 -1.9907280412649044 17.28209938795281
H 10.245337167931417 -2.5167883480804703 16.48444737661676
H 10.841509482824708 -2.191857120812297 17.85212187045686
O -3.062040898483547 -9.89612394067568 -6.624976073172702
H -3.3132031933352777 -9.35062344662902 -7.385445710659738
H -2.158926674754051 -9.610729189663914 -6.420289778339852
O -0.20843777235868372 6.3186681416729344 6.556158282645874
H 0.2545314399187654 5.716212610766846 5.954764735404251
H 0.29046115937495615 7.146566283070251 6.4879932792650985
O -10.651831349289989 -13.53810266973963 4.673050733712353
H -9.882071683208768 -13.996344159197148 4.3036564312193635
H -11.381602849219945 -13.800815613152626 4.092208748699854
O -17.624322671115717 -6.485707105082071 0.5254254290214053
H -16.982772516835425 -7.210787657482658 0.4849414942646222
H -18.146500108149766 -6.589728297229157 -0.28418698450549407