194

C -5.0710522388059704 1.0783507462686561 0.47044029850746183
C -3.8153522388059704 0.1782507462686569 0.19534029850746193
C -4.11845223880597 -1.3219492537313435 0.5608402985074619
C -2.96945223880597 -2.3874492537313436 0.7034402985074619
C -2.52015223880597 0.7359507462686565 0.7384402985074618
C -2.20305223880597 0.7852507462686571 2.097440298507462
C -1.5755522388059702 1.205650746268656 -0.18965970149253808
C -0.9533522388059701 1.2695507462686564 2.508640298507462
H -2.91125223880597 0.4298507462686567 2.840840298507462
C -0.32655223880597006 1.6562507462686575 0.21554029850746192
H -1.7850522388059702 1.178550746268657 -1.2573597014925382
C 0.004447761194029898 1.6956507462686563 1.569740298507462
H -0.7158522388059702 1.2676507462686573 3.5705402985074617
H 0.3943477611940298 1.9193507462686572 -0.5551597014925382
C -1.76045223880597 -2.1592492537313435 -0.1734597014925381
C -0.5287522388059701 -1.936549253731343 0.464840298507462
C -1.8068522388059702 -2.121249253731343 -1.5681597014925381
C 0.6114477611940299 -1.614449253731343 -0.2582597014925381
H -0.4544522388059702 -1.954049253731343 1.5506402985074619
C -0.6479522388059701 -1.8270492537313432 -2.2998597014925384
H -2.74345223880597 -2.290549253731343 -2.092259701492538
C 0.5698477611940298 -1.5506492537313434 -1.6506597014925382
H 1.5072477611940298 -1.351949253731343 0.2991402985074618
H -0.7173522388059701 -1.7640492537313435 -3.3840597014925375
C 1.7791477611940298 -1.082849253731343 -2.4255597014925376
H 1.4739477611940297 -0.9102492537313429 -3.464259701492538
H 2.1252477611940295 -0.1337492537313434 -2.0010597014925384
C 1.3965477611940298 2.0964507462686566 1.997440298507462
H 1.51704776119403 1.8448507462686567 3.057640298507462
H 2.1256477611940294 1.5207507462686571 1.4165402985074618
C 3.94864776119403 -1.4275492537313434 -3.522959701492538
H 4.81734776119403 -2.087049253731343 -3.615159701492538
H 3.4305477611940303 -1.3641492537313429 -4.484459701492538
H 4.26984776119403 -0.441449253731343 -3.176459701492538
C 2.60904776119403 -3.4296492537313434 -2.8992597014925376
H 1.9825477611940296 -3.869549253731343 -2.119359701492538
H 2.06294776119403 -3.373349253731343 -3.845759701492538
H 3.5215477611940305 -4.019849253731343 -3.0234597014925377
C 3.7281477611940304 -2.060049253731343 -1.156659701492538
H 3.9048477611940298 -1.032549253731343 -0.8295597014925382
H 3.12924776119403 -2.623249253731343 -0.4404597014925382
H 4.68244776119403 -2.5769492537313434 -1.3005597014925383
C 3.1110477611940297 3.755250746268656 2.588740298507462
H 3.40124776119403 4.809350746268656 2.534540298507462
H 2.9823477611940303 3.461750746268656 3.634840298507462
H 3.86514776119403 3.1392507462686563 2.091540298507462
C 1.99744776119403 3.9574507462686572 0.40494029850746194
H 2.67914776119403 3.230350746268657 -0.04295970149253803
H 1.03214776119403 3.981150746268657 -0.10175970149253821
H 2.4399477611940297 4.958250746268657 0.368240298507462
C 0.7418477611940297 4.4992507462686575 2.475440298507462
H -0.18475223880597014 4.424250746268656 1.901240298507462
H 0.57844776119403 4.189650746268656 3.511940298507462
H 1.1210477611940297 5.524350746268658 2.4432402985074617
N 3.00114776119403 -2.025349253731343 -2.490159701492538
N 1.7831477611940298 3.586450746268657 1.862540298507462
C -3.55075223880597 -3.8435492537313434 0.6444402985074619
H -2.62515223880597 -2.2736492537313433 1.7424402985074618
H -4.67195223880597 -1.3478492537313436 1.5102402985074619
H -4.83415223880597 -1.6757492537313432 -0.1945597014925382
H -3.7169522388059697 0.17335074626865676 -0.900559701492538
H -3.9132522388059705 -4.043149253731343 -0.34225970149253815
H -4.35435223880597 -3.9354492537313432 1.3449402985074619
H -2.78115223880597 -4.545049253731343 0.8904402985074619
H -5.24235223880597 1.138950746268657 1.5249402985074618
H -5.92805223880597 0.6501507462686567 -0.006059701492538094
H -4.89895223880597 2.059650746268657 0.08004029850746197
C 1.2275921632434266 -2.444373801925299 3.857997067765323
O 0.7210286609523089 -2.93042163387325 4.857460134519295
O 1.8264445969304601 -1.363504308440335 3.816423460504536
O 1.219763536136949 -2.958162882487604 2.733449212984314
O -9.547137535361538 3.1684356239637603 4.0610965753516215
H -9.780175991538147 3.4185928822713048 4.967783831774074
H -9.99405340083644 2.3186203620868246 3.9305508968790948
O 0.9257258084477615 4.319535202745258 -6.7902983864085575
H 1.778574076370916 4.7040614962658225 -6.537797458901721
H 1.1639920375428054 3.4878334644596247 -7.226719475387406
O -6.372924035235678 -5.613693456395868 -4.0723707061994485
H -7.256022321131242 -5.994108543547678 -3.952415982175761
H -6.200233730925022 -5.154826260358471 -3.23655918468406
O -7.208242066078233 -2.854414748334317 -0.5962445622026162
H -7.336434195703354 -2.7191249310479444 -1.5471550733133084
H -8.045266908786589 -3.242564406482629 -0.3001175626426307
O -5.2289026628523505 -1.867109780473188 -5.372916913563316
H -4.4847816137712515 -1.385250036155477 -4.98168500277316
H -5.648277903793613 -1.2166999344400642 -5.956057877455088
O 3.939270857064561 1.5770510050750524 8.745747922584135
H 4.231366313159437 0.7126683384853432 8.419419549426067
H 3.212161471133933 1.365485908585177 9.35032553971763
O 2.2972214196768963 9.785876251540005 9.052872723901926
H 2.581991444180014 9.74367315094354 8.12762017008511
H 1.3437511423820423 9.949412216115142 8.997084168572442
O -11.863239868096034 0.5345319867327936 -1.9125393774998014
H -11.275148521530834 -0.20942363083706184 -1.7134264344715162
H -12.288106113093 0.28058294844834464 -2.7455822960319627
O -10.195317215407213 -2.3131362988597917 3.1209430449939863
H -9.518186258461661 -2.908927254883149 2.7666914948678407
H -10.862934760823705 -2.9106656982824295 3.4900058772836626
O 6.41010081111254 6.007912735723847 1.541595591569339
H 6.688618952888017 5.5504968795230125 0.734027801165342
H 5.793231400944121 6.685293250481714 1.2260172125177387
O 5.869857348076813 3.7576888393817893 -8.426380843295572
H 5.482075483894212 4.265000809682299 -9.155234153297581
H 6.160171000755966 2.9328073992159367 -8.84381411585299
O -4.098868410894244 -8.605342798124552 5.248700590963789
H -5.028767241207556 -8.333210584059906 5.262827881935795
H -3.9274414987171573 -8.804573623725979 4.316026030245207
O 1.9351713684460874 -6.227481684530151 -3.8687002718698427
H 1.9764602492854668 -6.73423614340538 -4.693601783342035
H 1.102543228025068 -5.736539860886482 -3.9370263274889368
O -5.791085240136285 -5.499070132410429 -7.330438656971243
H -5.395965455705441 -5.1334525573601395 -8.136150455113526
H -5.13294845679843 -6.136786124559165 -7.015579589965931
O 5.455128630318385 -2.5997783287409733 7.870734553907102
H 5.521176690583648 -2.418727399622892 8.820379525304665
H 5.491628304701319 -1.7219554655301441 7.462008803685416
O 4.744176771667101 9.145247200231623 -0.028493668438138497
H 4.262497555219434 9.76868888527878 -0.5926505213504509
H 4.097496503915956 8.893976208780401 0.6479894905957169
O 2.136569480505394 7.865547929482116 -5.105647014888218
H 2.2413017081918705 7.644664780131854 -4.167985481222185
H 2.350571974022599 7.040107763513249 -5.565878923249327
O -2.135256765422698 9.442970024623426 -4.4562720379735
H -2.4650211781173716 8.901108770175322 -3.7237359160327004
H -2.8774936675728724 10.029473512861435 -4.666176739376683
O -3.133044691097746 -3.0062187137608527 -5.614979800372932
H -3.5873867818138843 -3.3024097997263695 -4.811978267311969
H -2.378455937653229 -3.6091223229308387 -5.692857881530932
O 6.43466998161497 -6.288448145920546 -0.4851875517942559
H 6.11612073109125 -6.429222814934331 0.419066961301939
H 5.9414692995962195 -5.5115753604892905 -0.7888052502449919
C -0.03760628626709739 10.691948764287897 3.831555479054913
O 1.0066486490996445 10.488448411570246 4.380133179755547
O -1.0818612216338388 10.895449117005548 3.2829777783542786
O 16.43664600899474 -2.1277392979249 -1.2783107101592228
H 15.826482721638483 -2.872215398559187 -1.1668501554908746
H 15.882281751651488 -1.424047726855994 -1.6477161612381706
O 0.9721332362794701 -12.716068323973541 12.490262400537016
H 1.6738336381735621 -12.810880751057462 13.151771664683881
H 0.36322223080653515 -13.443153348728151 12.689100773321364
O 10.80762052617805 11.603702967003185 -7.236014153685768
H 9.927467026546086 11.239131225669734 -7.058857106389595
H 11.333893202482935 10.831184398044819 -7.4913846200467304
O -6.794326011542134 10.366036022077925 4.100967697325755
H -6.873585571522387 10.575294542986438 5.043780589939618
H -6.005794917941832 10.853294413313076 3.818549711183861
O -19.930352567731294 -7.336416414989979 -5.650770938120157
H -19.44754340034336 -8.078205654639072 -6.045247032106837
H -20.15995423638983 -6.777325756533552 -6.408176149137335
O 14.535464596605909 -12.440105943443335 3.4744492935379796
H 15.222389720929488 -12.884870826102357 2.95552210247324
H 14.075115782498798 -13.164996014093653 3.923420672495208
O -8.27967316097432 11.229568218425754 -2.6917283403929915
H -9.142436589561742 11.384507027841948 -3.104766581393476
H -8.184889619054825 10.265272831077816 -2.7023316616029964
O 11.533648273171886 1.2703062519207946 -12.93204099721829
H 10.860194040426169 1.7467004344951804 -12.423636300046676
H 11.068485975746302 0.9948749137988107 -13.736232242715335
O -17.750602002187065 1.461614936213647 -0.7588687775240333
H -18.463078693212378 1.204922647832742 -1.3633961885910555
H -17.89491737869951 2.409085749195796 -0.6159209725425772
O 19.832477362863923 -0.24318894047295547 -2.608425886883907
H 20.484838925953028 -0.41858313937134284 -3.303140664973979
H 19.077716571333713 0.13300878092193558 -3.0856819672914666
O 4.735249343983805 12.91727245061833 -13.845249157627153
H 4.428387397820905 12.96091139347461 -12.927153985238416
H 3.9720962714320063 13.21715041407031 -14.361613892277614
O -6.6885586728358435 -6.366149014989239 2.3465935059773546
H -6.78386094245969 -6.429651746662085 1.3843813477842501
H -5.985723362582464 -6.999986609336904 2.5545222797259615
O -2.1215253424460263 -6.784885459827981 -6.589660917049165
H -2.3631851016992855 -6.552620385240801 -5.680473998541936
H -2.680397507543156 -6.210524794995538 -7.1343935799884095
O 10.856422605502754 0.9924459182661427 -7.2311970512050605
H 10.663528607819558 1.319376842513612 -6.3396391824559295
H 10.19421194773573 1.428047192763015 -7.788593246649972
O 12.525622035997142 9.775184744459109 0.1991999991997131
H 12.35970144637816 9.76001175106195 -0.7553718918131429
H 11.772763643242872 10.267230165296374 0.5598348402682587
O -5.754482165615633 4.622961144543686 -8.142769189796269
H -5.003767431206098 4.133091665400331 -8.510767339036509
H -5.8612866603651455 4.25398106187963 -7.253157789915102
O 1.7348093154336608 3.617042190986042 -2.7515960055373796
H 1.9745193779783867 2.680390173725671 -2.6868701113613884
H 0.9851148639683951 3.62489913657905 -3.3654839775226133
O 4.370468048151645 8.496861158810749 -7.528946648632634
H 4.182949525398779 8.108343017471507 -6.661272853721847
H 4.905913159984908 9.278244680271797 -7.324740211655251
O 6.488059367039012 0.7782642688073809 10.2179366081246
H 6.606056087528244 0.8306688779307967 9.25757319368379
H 6.167640126844754 1.6593602738936926 10.462810626007826
O 15.142076145277233 0.9188777431694719 -9.87420774140277
H 14.837808736800628 0.9116735015672761 -10.794173392903883
H 16.102622023310545 1.0243875144459533 -9.946188632328097