194

C -5.0710522388059704 1.0783507462686561 0.47044029850746183
C -3.8153522388059704 0.1782507462686569 0.19534029850746193
C -4.11845223880597 -1.3219492537313435 0.5608402985074619
C -2.96945223880597 -2.3874492537313436 0.7034402985074619
C -2.52015223880597 0.7359507462686565 0.7384402985074618
C -2.20305223880597 0.7852507462686571 2.097440298507462
C -1.5755522388059702 1.205650746268656 -0.18965970149253808
C -0.9533522388059701 1.2695507462686564 2.508640298507462
H -2.91125223880597 0.4298507462686567 2.840840298507462
C -0.32655223880597006 1.6562507462686575 0.21554029850746192
H -1.7850522388059702 1.178550746268657 -1.2573597014925382
C 0.004447761194029898 1.6956507462686563 1.569740298507462
H -0.7158522388059702 1.2676507462686573 3.5705402985074617
H 0.3943477611940298 1.9193507462686572 -0.5551597014925382
C -1.76045223880597 -2.1592492537313435 -0.1734597014925381
C -0.5287522388059701 -1.936549253731343 0.464840298507462
C -1.8068522388059702 -2.121249253731343 -1.5681597014925381
C 0.6114477611940299 -1.614449253731343 -0.2582597014925381
H -0.4544522388059702 -1.954049253731343 1.5506402985074619
C -0.6479522388059701 -1.8270492537313432 -2.2998597014925384
H -2.74345223880597 -2.290549253731343 -2.092259701492538
C 0.5698477611940298 -1.5506492537313434 -1.6506597014925382
H 1.5072477611940298 -1.351949253731343 0.2991402985074618
H -0.7173522388059701 -1.7640492537313435 -3.3840597014925375
C 1.7791477611940298 -1.082849253731343 -2.4255597014925376
H 1.4739477611940297 -0.9102492537313429 -3.464259701492538
H 2.1252477611940295 -0.1337492537313434 -2.0010597014925384
C 1.3965477611940298 2.0964507462686566 1.997440298507462
H 1.51704776119403 1.8448507462686567 3.057640298507462
H 2.1256477611940294 1.5207507462686571 1.4165402985074618
C 3.94864776119403 -1.4275492537313434 -3.522959701492538
H 4.81734776119403 -2.087049253731343 -3.615159701492538
H 3.4305477611940303 -1.3641492537313429 -4.484459701492538
H 4.26984776119403 -0.441449253731343 -3.176459701492538
C 2.60904776119403 -3.4296492537313434 -2.8992597014925376
H 1.9825477611940296 -3.869549253731343 -2.119359701492538
H 2.06294776119403 -3.373349253731343 -3.845759701492538
H 3.5215477611940305 -4.019849253731343 -3.0234597014925377
C 3.7281477611940304 -2.060049253731343 -1.156659701492538
H 3.9048477611940298 -1.032549253731343 -0.8295597014925382
H 3.12924776119403 -2.623249253731343 -0.4404597014925382
H 4.68244776119403 -2.5769492537313434 -1.3005597014925383
C 3.1110477611940297 3.755250746268656 2.588740298507462
H 3.40124776119403 4.809350746268656 2.534540298507462
H 2.9823477611940303 3.461750746268656 3.634840298507462
H 3.86514776119403 3.1392507462686563 2.091540298507462
C 1.99744776119403 3.9574507462686572 0.40494029850746194
H 2.67914776119403 3.230350746268657 -0.04295970149253803
H 1.03214776119403 3.981150746268657 -0.10175970149253821
H 2.4399477611940297 4.958250746268657 0.368240298507462
C 0.7418477611940297 4.4992507462686575 2.475440298507462
H -0.18475223880597014 4.424250746268656 1.901240298507462
H 0.57844776119403 4.189650746268656 3.511940298507462
H 1.1210477611940297 5.524350746268658 2.4432402985074617
N 3.00114776119403 -2.025349253731343 -2.490159701492538
N 1.7831477611940298 3.586450746268657 1.862540298507462
C -3.55075223880597 -3.8435492537313434 0.6444402985074619
H -2.62515223880597 -2.2736492537313433 1.7424402985074618
H -4.67195223880597 -1.3478492537313436 1.5102402985074619
H -4.83415223880597 -1.6757492537313432 -0.1945597014925382
H -3.7169522388059697 0.17335074626865676 -0.900559701492538
H -3.9132522388059705 -4.043149253731343 -0.34225970149253815
H -4.35435223880597 -3.9354492537313432 1.3449402985074619
H -2.78115223880597 -4.545049253731343 0.8904402985074619
H -5.24235223880597 1.138950746268657 1.5249402985074618
H -5.92805223880597 0.6501507462686567 -0.006059701492538094
H -4.89895223880597 2.059650746268657 0.08004029850746197
C 1.636342799135559 3.83880053751018 -3.1616593514498064
O 1.4388678330314377 4.292865058212575 -4.278173815037931
O 1.4045448140979009 4.429967812357169 -2.1008000717230053
O 2.0985476605903233 2.717845861035206 -2.919841933267268
O -7.783885373940368 3.5248088121305905 8.735941628692823
H -7.696189151287989 3.4639912478079955 9.699050113393467
H -8.166840686263768 2.6718458764246384 8.481459009688754
O -6.835239392625506 -7.546892029953183 5.99758239768665
H -5.926453854691932 -7.543626958645947 5.661330197318912
H -6.9374753506024405 -6.673320721405468 6.404255389264368
O -0.2609514148482426 -1.6034826760921073 -7.250058791706841
H -0.9990376022997809 -0.9822255207105186 -7.159308124048523
H 0.41533783337750174 -1.2525412605632678 -6.651364445733144
O -0.872902083457264 3.0647456148204113 -11.163985000248768
H -0.3884565986631867 3.7878082686657564 -11.589966605223394
H -1.6663175422195722 3.492311014824785 -10.808117492858594
O 2.244120871985264 -3.520946059739222 6.331859535158009
H 2.6122099475311384 -4.402410351267683 6.1690759606671755
H 1.6032919481769778 -3.662890621176248 7.044707328301231
O 4.496659316495263 4.5615366394970955 -3.484812280149346
H 4.507331674283849 4.637429540704382 -2.5188445140072373
H 4.2479673739382315 5.448153077324413 -3.786516695399782
O -1.4898836968435305 -5.405823504248621 -4.449839355988496
H -1.6591056915764129 -5.219557183197475 -3.51408504472902
H -2.3523655745442316 -5.68417605984635 -4.792777848622505
O 8.598212880671738 0.06075291758889323 -4.413240966111657
H 8.306508881399628 0.983054925778438 -4.3563626802884095
H 9.467712819177326 0.11600266433837225 -4.837362725424826
O 7.8034765553699454 3.5755542627445593 -0.43246215318639103
H 8.082098325657592 3.58217807132492 0.49559678415631353
H 7.525431802166855 4.488583028315317 -0.5998883541125585
O -1.7407170615273868 6.266922878228321 -6.219163922909869
H -1.3259343941759734 6.160318210730562 -7.088392397266606
H -2.4363742656644582 6.9242105008814665 -6.370808176804198
O 4.416593672338646 -5.607918631263052 -6.967541444098874
H 4.447240030353551 -5.572435234628525 -5.999673123404524
H 4.2420137806588505 -6.54098657881475 -7.162138491796763
O -6.565035285624052 9.29898498105875 -4.971259549034432
H -7.2054339897788156 9.788216131611922 -4.433198457758245
H -6.43806656561642 9.859574043034058 -5.751375432755093
O 3.81213388986071 1.7601027387931738 -5.537548046862679
H 3.5435448713575757 1.5523220452239908 -6.445102166141213
H 4.269434444117479 0.959413108371677 -5.239665078044492
O 0.13326568769527558 -6.381792238161476 0.5314002591294171
H -0.41274391615040873 -6.551759510757758 1.3136738657751104
H 0.12473628854967389 -5.416669863443191 0.44521443971373964
O 5.770790339522867 -2.507137799622198 1.6856602250412815
H 6.580862554462974 -2.143861152757183 2.073964797927747
H 5.108500351878524 -1.8161200060720344 1.8367506799453492
O 9.819841909722374 -2.794640421662368 0.3835117533817247
H 9.894833742447368 -2.4084068023372422 -0.5020203878912852
H 8.864256823349015 -2.8639563084104833 0.5284751792695708
O -3.3260597757917276 6.637398007767335 5.496517582766164
H -3.4778199000797168 5.680411916417402 5.5071872846772205
H -4.1929219831351485 7.014241558982428 5.709826737954797
O 2.907838524877031 -7.336124765965025 -3.341952525308127
H 2.8755718630888834 -7.314011096512776 -2.3737391164666626
H 2.4709310230055146 -6.513648617241739 -3.609546927136163
O -5.227397173279954 -3.7932027366454806 -7.06590805262384
H -5.6198498663237695 -3.5939015692258214 -6.20264257475054
H -5.563671626903277 -4.677015536660503 -7.277465067799282
O 1.4317944053126652 -5.494702281975869 -8.344760617497803
H 1.7859993733745907 -6.396293528175078 -8.319473817043697
H 0.9823056166013859 -5.395816504077058 -7.492033594323203
C 1.289039606367505 -4.741104691127893 -11.174090710253832
O 1.6322696497859837 -3.688317116846136 -10.719503295081697
O 0.9458095629490262 -5.793892265409649 -11.628678125425969
O 10.840053663862495 -0.013801945648742375 7.53546708710584
H 10.639049647198073 -0.4680652146831681 6.703475726218645
H 10.000397040766718 0.4007985573140189 7.784555670815368
O 17.128827925454342 -0.1213205780601343 5.665743849442235
H 17.64816360976406 0.6470948449164333 5.385038413737308
H 17.49968215281129 -0.3510405789520381 6.530993991043901
O 2.1764286157058153 2.3110722637004955 -10.58239678062909
H 2.0173375866092575 2.490451268420741 -9.643524811707568
H 1.3636925453978765 2.6081902236271306 -11.018450610115131
O -7.484407543081416 -3.0703855226182215 -10.737909539952687
H -7.806877402819839 -3.197007405972096 -11.6428666909362
H -7.774926676480105 -3.8688401290753576 -10.272043873846401
O -11.367249726396768 -7.042937300913154 -11.50640514306922
H -12.013565886732973 -7.012746117765797 -12.227745056181222
H -11.887896971944645 -7.318509266220587 -10.73702326003583
O -0.0694169488741585 15.272469328962314 13.286014452539638
H -0.0511289387077693 15.325921617103328 14.253369484819228
H 0.752234187787491 15.706953343529944 13.012016286473118
O -4.435638387204748 10.965003834333647 -17.5664113531378
H -5.0023783139321845 11.73678507068226 -17.417660099115558
H -3.9690225829701813 11.172505034994767 -18.38992509756634
O -4.993106047671679 -0.40180639009226304 16.73247207592361
H -5.769369485609911 -0.9804048802474474 16.692394413685673
H -4.244113083938082 -1.0073161188601585 16.626032172950183
O -7.305671080968253 -18.305436732760285 9.816508589934564
H -7.851182444779103 -18.823576954661412 9.205840579227043
H -7.054754766601244 -18.94130851740833 10.503290957918033
O 12.106489086815413 7.151985989845635 7.618312359605342
H 11.294110382230288 6.639990336480937 7.748191719675561
H 12.066944802286912 7.832429377807333 8.307075736709798
O 0.5719866888436425 -9.669715955388249 -9.984906078002941
H -0.1568429674726829 -9.302163291185707 -10.507093523286187
H 0.4384340622105107 -10.627962733862342 -10.038653187352274
O -4.119415342315197 -10.69607472629221 11.880701192987265
H -4.137781773964822 -10.704752812157757 10.91191085348435
H -4.679311086656506 -11.445912191764107 12.132141991473054
O 12.414374586919893 -9.621196800931305 9.08290118207638
H 12.60395385397751 -9.374821803505666 10.00068460916875
H 12.857851618636648 -8.936231578052134 8.560299316325994
O 6.712837944639547 -3.719619379352402 -9.511853826589116
H 7.151491731117006 -3.596249910203874 -8.656675373521571
H 7.143169238604495 -4.503693747607582 -9.884686640031942
O 10.867791571481522 3.1156092548652072 -3.079977837551953
H 10.70300176249273 2.634777225962712 -3.9049701015974705
H 9.986672229440348 3.221908804849244 -2.691016329103988
O -17.21277217141937 5.831129731191598 -8.107118582834186
H -18.110184282028275 5.492387727858886 -7.969740579461716
H -16.858190286703735 5.273784475264524 -8.816061385200562
O -15.752603949713397 -0.6341087132591303 2.205047186166431
H -15.781083695521428 -1.1902328811681269 2.998068100673886
H -15.524721257796859 0.24477377226552122 2.543568972264292
O 6.790007495268614 13.940045894446047 14.17778133177326
H 7.673389168316134 14.203841927202948 14.476136539077384
H 6.264155896903352 13.92093535279217 14.99146236755718
O 12.10952411898446 -7.815267561675581 -5.855133647873992
H 12.715392461683063 -7.712800646554236 -6.60439424307513
H 11.583491349038237 -7.001558767974172 -5.86651206145851
O 14.320036205751173 -14.006815885241478 -0.6904273842340896
H 14.2460838413367 -13.233459963608114 -0.11127367132868038
H 15.258887810524374 -14.031669451125723 -0.9289685940440933