194

C -5.0710522388059704 1.0783507462686561 0.47044029850746183
C -3.8153522388059704 0.1782507462686569 0.19534029850746193
C -4.11845223880597 -1.3219492537313435 0.5608402985074619
C -2.96945223880597 -2.3874492537313436 0.7034402985074619
C -2.52015223880597 0.7359507462686565 0.7384402985074618
C -2.20305223880597 0.7852507462686571 2.097440298507462
C -1.5755522388059702 1.205650746268656 -0.18965970149253808
C -0.9533522388059701 1.2695507462686564 2.508640298507462
H -2.91125223880597 0.4298507462686567 2.840840298507462
C -0.32655223880597006 1.6562507462686575 0.21554029850746192
H -1.7850522388059702 1.178550746268657 -1.2573597014925382
C 0.004447761194029898 1.6956507462686563 1.569740298507462
H -0.7158522388059702 1.2676507462686573 3.5705402985074617
H 0.3943477611940298 1.9193507462686572 -0.5551597014925382
C -1.76045223880597 -2.1592492537313435 -0.1734597014925381
C -0.5287522388059701 -1.936549253731343 0.464840298507462
C -1.8068522388059702 -2.121249253731343 -1.5681597014925381
C 0.6114477611940299 -1.614449253731343 -0.2582597014925381
H -0.4544522388059702 -1.954049253731343 1.5506402985074619
C -0.6479522388059701 -1.8270492537313432 -2.2998597014925384
H -2.74345223880597 -2.290549253731343 -2.092259701492538
C 0.5698477611940298 -1.5506492537313434 -1.6506597014925382
H 1.5072477611940298 -1.351949253731343 0.2991402985074618
H -0.7173522388059701 -1.7640492537313435 -3.3840597014925375
C 1.7791477611940298 -1.082849253731343 -2.4255597014925376
H 1.4739477611940297 -0.9102492537313429 -3.464259701492538
H 2.1252477611940295 -0.1337492537313434 -2.0010597014925384
C 1.3965477611940298 2.0964507462686566 1.997440298507462
H 1.51704776119403 1.8448507462686567 3.057640298507462
H 2.1256477611940294 1.5207507462686571 1.4165402985074618
C 3.94864776119403 -1.4275492537313434 -3.522959701492538
H 4.81734776119403 -2.087049253731343 -3.615159701492538
H 3.4305477611940303 -1.3641492537313429 -4.484459701492538
H 4.26984776119403 -0.441449253731343 -3.176459701492538
C 2.60904776119403 -3.4296492537313434 -2.8992597014925376
H 1.9825477611940296 -3.869549253731343 -2.119359701492538
H 2.06294776119403 -3.373349253731343 -3.845759701492538
H 3.5215477611940305 -4.019849253731343 -3.0234597014925377
C 3.7281477611940304 -2.060049253731343 -1.156659701492538
H 3.9048477611940298 -1.032549253731343 -0.8295597014925382
H 3.12924776119403 -2.623249253731343 -0.4404597014925382
H 4.68244776119403 -2.5769492537313434 -1.3005597014925383
C 3.1110477611940297 3.755250746268656 2.588740298507462
H 3.40124776119403 4.809350746268656 2.534540298507462
H 2.9823477611940303 3.461750746268656 3.634840298507462
H 3.86514776119403 3.1392507462686563 2.091540298507462
C 1.99744776119403 3.9574507462686572 0.40494029850746194
H 2.67914776119403 3.230350746268657 -0.04295970149253803
H 1.03214776119403 3.981150746268657 -0.10175970149253821
H 2.4399477611940297 4.958250746268657 0.368240298507462
C 0.7418477611940297 4.4992507462686575 2.475440298507462
H -0.18475223880597014 4.424250746268656 1.901240298507462
H 0.57844776119403 4.189650746268656 3.511940298507462
H 1.1210477611940297 5.524350746268658 2.4432402985074617
N 3.00114776119403 -2.025349253731343 -2.490159701492538
N 1.7831477611940298 3.586450746268657 1.862540298507462
C -3.55075223880597 -3.8435492537313434 0.6444402985074619
H -2.62515223880597 -2.2736492537313433 1.7424402985074618
H -4.67195223880597 -1.3478492537313436 1.5102402985074619
H -4.83415223880597 -1.6757492537313432 -0.1945597014925382
H -3.7169522388059697 0.17335074626865676 -0.900559701492538
H -3.9132522388059705 -4.043149253731343 -0.34225970149253815
H -4.35435223880597 -3.9354492537313432 1.3449402985074619
H -2.78115223880597 -4.545049253731343 0.8904402985074619
H -5.24235223880597 1.138950746268657 1.5249402985074618
H -5.92805223880597 0.6501507462686567 -0.006059701492538094
H -4.89895223880597 2.059650746268657 0.08004029850746197
C 0.8998149912333482 -2.9589271356755176 2.8569564863672765
O 1.427838680313445 -2.7459518030421988 1.7763973764339185
O 1.4444355804407834 -2.812839106703589 3.957264700324822
O -0.26088409587865036 -3.35350586757711 3.0173735612324704
O -3.034786530103487 -2.9514064953330195 -6.2892364586373235
H -2.4055769175121378 -2.679132819448669 -5.604452065019107
H -3.0950718920291593 -2.179539806826588 -6.871945163404642
O 2.7079553635492326 0.03238213739091167 -7.372041822284656
H 3.316246770098691 -0.33458294987163395 -6.713038372863885
H 2.036760416482014 -0.6579593950797755 -7.481073266728247
O -1.7199230810379937 -4.212023568289306 6.363923334348552
H -1.6370601565995757 -4.076530962324785 7.31982230724394
H -1.8039850231331855 -3.3151559292543773 6.006818346644517
O -1.2068527448245203 2.465078687252772 -8.236633920152462
H -1.2835624938871857 2.4286738128600263 -7.27135797182515
H -2.0373216946042465 2.078154008143743 -8.552185121145476
O -6.851332621162016 -0.6398796273421246 4.528818115876535
H -7.061937257140497 -0.687874834291127 5.473439470872437
H -7.384091948989534 0.10309107271836915 4.207688886804513
O -5.280313162765656 6.0050409438077565 -3.0106756134840085
H -5.155026822655934 5.792544867089308 -2.0735971176998085
H -5.740683216277381 6.857599600241082 -2.9978266652697396
O -2.2903098382099225 -1.2168436549337276 8.742866264242187
H -2.045495198403972 -0.6518527286410394 7.9946561318304346
H -2.627313467814111 -0.595049154064446 9.405257460305602
O -1.7866447353586363 4.483298386802479 0.528905455780144
H -1.6194927461385507 4.865866373322119 -0.3455482623148036
H -1.8912543963910735 5.254797424766182 1.1058005914328537
O -1.2108454199063057 -0.6132285459437403 12.167136979154522
H -1.94301961074224 -0.6161267905584449 11.532408760661047
H -1.308686437537367 0.23052693920001666 12.63346922215166
O 1.847721844908868 5.095836857652373 -6.196726731698702
H 0.9447434739720384 5.310996135853556 -5.91869093629779
H 2.3970246770985235 5.3860895880296304 -5.453099341565061
O 0.9960696692905011 8.407052112443832 -0.21458054249545877
H 1.4768211975958248 8.9241664667697 0.4490745407234055
H 0.06498975752957037 8.523969677800695 0.027044011567822435
O 6.108429343403072 -2.1429211818941685 5.566304990579723
H 5.74816078783408 -2.5428976179177947 4.760579990723029
H 6.24546570821812 -2.8960721017787914 6.160398140595126
O -4.917170894065986 -0.6880123390778865 -4.946500537734193
H -4.608207841683221 -0.5879914186527553 -5.85946549031432
H -5.607609083980338 -1.3653045661081198 -5.005933604390888
O 0.5708157041037158 -7.005200129934936 -0.3268313349205012
H -0.14424454924755725 -7.015727245085424 0.3270382016262192
H 0.6806481734898044 -6.065992411848094 -0.5384622288246279
O 7.538918032931795 -6.100909315869228 -1.3608423478077745
H 8.123104812724934 -6.605188126211921 -0.7748423097068522
H 8.116525145593275 -5.420507590653839 -1.7381823271722592
O 10.577724070367704 3.2865929444527797 4.2871301735871405
H 11.094661121999986 4.001556235637395 3.8864171418447366
H 9.788944373385807 3.226055084069303 3.727555601801275
O 6.7798544807817205 2.9351492749058137 -3.629123416210635
H 7.222676760095824 2.8252299966118866 -2.774258784761652
H 6.4673459659946415 2.044204764918909 -3.8471102337243703
O -12.284788018686248 5.219786429565953 -3.4860815321752083
H -12.482788259787547 5.580839780935281 -4.3632381538162965
H -12.23586554743152 4.263136505821048 -3.632332889451641
O 4.987049271642048 3.6851111985414993 5.44448771693992
H 5.3190117564783375 4.119993979473 4.644709477419363
H 4.453838287225113 4.3681704013460765 5.878167455757748
O 0.6031525083774342 -6.4339493560896655 5.894373663493787
H 1.2591954067056528 -7.144121874632585 5.959412623813862
H 0.45884130309629517 -6.33518375375079 4.9412831241823625
C -2.709365917057059 -23.063648317944896 3.2752805366330486
O -2.0468052538465673 -22.20781523445026 3.7865352266478585
O -3.3719265802675475 -23.919481401439526 2.7640258466182397
O 9.848341600861342 12.768869153571341 -4.633058716265375
H 10.403728376730061 13.515783681995703 -4.363556261139702
H 10.093904662302299 12.61633592341273 -5.557934027241469
O 14.144734728363597 8.574985636748735 5.585879722755301
H 14.36782013983841 9.514689510105185 5.664345552808898
H 14.747849278158846 8.247574861798459 4.901762065789972
O 1.2137934719883288 6.3713802195046565 6.073355825997225
H 1.3819976639232725 6.353957485550961 7.027489545691215
H 1.4469786657390147 7.274582426067901 5.8110346797380235
O -10.888050410618984 -14.194581277190656 0.5448046478870894
H -10.87485230828333 -14.764322474276529 -0.23889691223506204
H -10.185110043498842 -14.553488458042942 1.1069633622246533
O -9.68612909944353 14.37944744217167 -4.241958566124106
H -8.900934115165095 13.932886708848446 -3.8912169161624623
H -9.931571825802127 15.004478353881678 -3.5433483945801934
O -0.872018610001317 4.630398122520086 11.821989465430578
H -1.7319954227510426 4.231990225064304 12.023678299225827
H -0.3840247080314554 3.921165418865696 11.377227879850944
O 12.078632343092238 -1.4047245254957097 -9.098801452820847
H 12.227705516681796 -0.4472965908182485 -9.090066710970628
H 11.178321517709715 -1.4982766231335392 -9.444706594480527
O -2.0273399903000406 -10.398151992001436 -8.205463984338603
H -2.034087333553216 -10.423101183134618 -7.236805443819383
H -1.40882897964128 -11.101661374369261 -8.453416848638087
O 10.166465682522752 -10.520496387773765 1.4054925936852731
H 10.854314172793426 -10.058108124640148 0.9034677880744022
H 10.617864964247875 -11.303771594932527 1.7543200332717266
O -7.155302529565104 10.087172197577834 -15.108313415140788
H -7.374759469430904 9.207998490256081 -15.451620276125045
H -6.287462370096305 10.279214762279258 -15.494234463097584
O -7.575563821903772 16.02773750917568 -17.02167876367869
H -7.384248313035476 16.235882345135977 -16.094833868224477
H -6.7107281735487465 16.07697459380627 -17.455956273033507
O -19.307128127920873 -0.09382575121481729 3.3448046774712203
H -18.970623261906226 -0.09614290087063715 4.253499600350148
H -19.07287826843206 0.7850757498566967 3.010707238026215
O 6.478170327709612 -0.23515884664411346 8.249787936992007
H 6.250206367860755 -1.15277153574975 8.461888721295962
H 6.809307140595655 -0.28049119226310526 7.340252157656003
O 3.783684485832176 -3.537778514010142 -6.11871879678463
H 3.7282642481598085 -3.554175195840808 -5.151440603615114
H 3.0445007483687196 -4.09510809677171 -6.4049932852539495
O -10.91296315038168 -6.103866854157224 11.635845314735127
H -10.797612458248896 -5.552597326662125 10.847325509796901
H -11.117399277666522 -6.9816339546341695 11.27990609031462
O -12.268832399473109 -13.080200973050578 5.078640127195139
H -12.125330134157089 -12.91328607672556 4.134969700545041
H -11.761791708351929 -12.382027958037714 5.519577903933767
O -6.154017977656921 -8.056529991412308 11.248782988015217
H -6.289191522691564 -8.986789903942697 11.483967946636565
H -5.957486692303684 -8.081088672383888 10.300239752645137
O 9.601876993132413 0.9654932782706047 -3.073346561705419
H 9.330068879986683 0.9499732196168531 -4.003317977560521
H 10.560061244141675 0.825135100176595 -3.1071765374658042
O 10.451262055462136 -6.008721112698344 -5.636509279200643
H 9.785767868431131 -6.682184496412626 -5.842741950530991
H 10.920866886442907 -5.879473973761681 -6.474201599862715
O -0.673311460598299 -16.984902723879138 6.295908403137798
H -0.8574443677164307 -17.0960797390661 5.351079264769201
H -1.5452063604739674 -17.05049100356598 6.713591782551582