194

C -5.0710522388059704 1.0783507462686561 0.47044029850746183
C -3.8153522388059704 0.1782507462686569 0.19534029850746193
C -4.11845223880597 -1.3219492537313435 0.5608402985074619
C -2.96945223880597 -2.3874492537313436 0.7034402985074619
C -2.52015223880597 0.7359507462686565 0.7384402985074618
C -2.20305223880597 0.7852507462686571 2.097440298507462
C -1.5755522388059702 1.205650746268656 -0.18965970149253808
C -0.9533522388059701 1.2695507462686564 2.508640298507462
H -2.91125223880597 0.4298507462686567 2.840840298507462
C -0.32655223880597006 1.6562507462686575 0.21554029850746192
H -1.7850522388059702 1.178550746268657 -1.2573597014925382
C 0.004447761194029898 1.6956507462686563 1.569740298507462
H -0.7158522388059702 1.2676507462686573 3.5705402985074617
H 0.3943477611940298 1.9193507462686572 -0.5551597014925382
C -1.76045223880597 -2.1592492537313435 -0.1734597014925381
C -0.5287522388059701 -1.936549253731343 0.464840298507462
C -1.8068522388059702 -2.121249253731343 -1.5681597014925381
C 0.6114477611940299 -1.614449253731343 -0.2582597014925381
H -0.4544522388059702 -1.954049253731343 1.5506402985074619
C -0.6479522388059701 -1.8270492537313432 -2.2998597014925384
H -2.74345223880597 -2.290549253731343 -2.092259701492538
C 0.5698477611940298 -1.5506492537313434 -1.6506597014925382
H 1.5072477611940298 -1.351949253731343 0.2991402985074618
H -0.7173522388059701 -1.7640492537313435 -3.3840597014925375
C 1.7791477611940298 -1.082849253731343 -2.4255597014925376
H 1.4739477611940297 -0.9102492537313429 -3.464259701492538
H 2.1252477611940295 -0.1337492537313434 -2.0010597014925384
C 1.3965477611940298 2.0964507462686566 1.997440298507462
H 1.51704776119403 1.8448507462686567 3.057640298507462
H 2.1256477611940294 1.5207507462686571 1.4165402985074618
C 3.94864776119403 -1.4275492537313434 -3.522959701492538
H 4.81734776119403 -2.087049253731343 -3.615159701492538
H 3.4305477611940303 -1.3641492537313429 -4.484459701492538
H 4.26984776119403 -0.441449253731343 -3.176459701492538
C 2.60904776119403 -3.4296492537313434 -2.8992597014925376
H 1.9825477611940296 -3.869549253731343 -2.119359701492538
H 2.06294776119403 -3.373349253731343 -3.845759701492538
H 3.5215477611940305 -4.019849253731343 -3.0234597014925377
C 3.7281477611940304 -2.060049253731343 -1.156659701492538
H 3.9048477611940298 -1.032549253731343 -0.8295597014925382
H 3.12924776119403 -2.623249253731343 -0.4404597014925382
H 4.68244776119403 -2.5769492537313434 -1.3005597014925383
C 3.1110477611940297 3.755250746268656 2.588740298507462
H 3.40124776119403 4.809350746268656 2.534540298507462
H 2.9823477611940303 3.461750746268656 3.634840298507462
H 3.86514776119403 3.1392507462686563 2.091540298507462
C 1.99744776119403 3.9574507462686572 0.40494029850746194
H 2.67914776119403 3.230350746268657 -0.04295970149253803
H 1.03214776119403 3.981150746268657 -0.10175970149253821
H 2.4399477611940297 4.958250746268657 0.368240298507462
C 0.7418477611940297 4.4992507462686575 2.475440298507462
H -0.18475223880597014 4.424250746268656 1.901240298507462
H 0.57844776119403 4.189650746268656 3.511940298507462
H 1.1210477611940297 5.524350746268658 2.4432402985074617
N 3.00114776119403 -2.025349253731343 -2.490159701492538
N 1.7831477611940298 3.586450746268657 1.862540298507462
C -3.55075223880597 -3.8435492537313434 0.6444402985074619
H -2.62515223880597 -2.2736492537313433 1.7424402985074618
H -4.67195223880597 -1.3478492537313436 1.5102402985074619
H -4.83415223880597 -1.6757492537313432 -0.1945597014925382
H -3.7169522388059697 0.17335074626865676 -0.900559701492538
H -3.9132522388059705 -4.043149253731343 -0.34225970149253815
H -4.35435223880597 -3.9354492537313432 1.3449402985074619
H -2.78115223880597 -4.545049253731343 0.8904402985074619
H -5.24235223880597 1.138950746268657 1.5249402985074618
H -5.92805223880597 0.6501507462686567 -0.006059701492538094
H -4.89895223880597 2.059650746268657 0.08004029850746197
C 1.7245390203486055 -3.727274277386684 3.1610977216954077
O 2.513255442034594 -2.8042721210861568 3.294397850080299
O 2.0237207112708653 -4.926884330214731 3.168680667744722
O 0.5051194188512297 -3.604558778381913 2.9979869428118815
O 5.35844517050723 8.316137328017401 2.438285623042232
H 4.910159169526446 7.900271538381686 1.686579122315174
H 5.875139350476086 9.030699548482138 2.0365520026283863
O 4.0474516486858345 -1.0030668767549824 -9.538226432393941
H 4.426328760914121 -1.1703114370539587 -8.662184910672533
H 4.705529249569672 -1.3646019406245697 -10.150752524171086
O -2.1736140644573307 0.528474652670742 6.71713539565706
H -2.0153927795153423 1.483731582952395 6.679484644798936
H -1.5162568984770215 0.20720970097248312 7.35245604811899
O 0.26472090941364845 7.106818770522782 5.15832931154801
H 0.968143580564222 7.755280745072658 5.00450808357778
H -0.05295874045614202 7.313228732490721 6.050201786714164
O -2.1549201737830597 3.6236626167861017 -0.28420608891108323
H -2.513466735835036 3.0391694422498565 -0.968880791716183
H -2.82019335046708 3.5951757712921686 0.4197555892494228
O -10.087127063671144 4.0302286387142905 0.6236261201110498
H -9.367905323721686 4.101393531265087 -0.021837282222739063
H -9.677871973481356 3.587491103963025 1.382214078607701
O -3.260690316533114 -7.1616536210986315 2.8511309255071335
H -3.214188198084883 -6.2231869624634335 3.0879541517961
H -3.5772701919820884 -7.156534228072871 1.9353182161741826
O -2.016417583686346 -7.7446781453575095 -5.687233542739979
H -2.2478832718093926 -6.80805280868443 -5.59710046987676
H -1.25282010763606 -7.854547201704163 -5.100880722906111
O -5.677361947123439 10.96768911239753 4.715184867898878
H -5.605590312328745 11.289111834634904 5.626504582910253
H -4.820805243683876 11.19004148697977 4.320429273118526
O -1.0432100309816192 -9.696036138445791 0.726934786064275
H -1.0100345358686595 -8.896936265031455 0.1798460037508347
H -0.449594973847716 -9.497987686387265 1.466772551308205
O 3.243991452053678 -8.66033723676047 6.478298379041663
H 3.2595595824541412 -8.608786156245886 5.510792577346596
H 4.008687621090236 -9.214435897039474 6.6954996406351945
O 7.288049704407609 4.431128572315334 4.476175737353549
H 7.224364843532743 5.390396130756388 4.354860665256597
H 6.447080919726943 4.095252225371617 4.13132718065588
O 4.034394814237108 -5.446493526142303 5.170121040090953
H 4.662791680939712 -5.211776045278078 4.470841096867137
H 3.8143065127103544 -4.597308977315018 5.581713904295457
O 5.01637837264539 -6.5190785033181955 -4.983670164314113
H 4.802278277908428 -5.589033334060641 -5.151433358949622
H 5.186305612374058 -6.551842984307473 -4.030248344612204
O 3.1417738684511134 -1.7162829860933577 -6.8955778936800245
H 2.430699143407235 -1.6448842804080532 -6.241175634262901
H 2.758105722571475 -2.2603230064759283 -7.59969518104017
O 0.8670205935248056 -2.353786138523104 7.962620020308108
H 0.9019080489074256 -1.6824666920703193 7.2647085480057445
H 1.502369659381772 -3.0256839900560664 7.673056925421917
O 4.834677101364582 2.776145284313953 -8.677667860811844
H 5.006722286962168 2.9710939266689813 -7.744199683605667
H 5.7184874823648055 2.6934543129167965 -9.066259366104525
O -5.554283803763012 -1.3043551534562203 -5.452515677270984
H -5.4522573217065675 -2.0239077998536943 -4.811577347225434
H -4.959142256159249 -1.5498643465154203 -6.176735063050748
O -0.4339646150433065 -0.49219915582664764 -7.9833046324107935
H 0.388838698696099 -0.05046714719048562 -8.24182909227043
H -0.15047926195920747 -1.1542862705379275 -7.3350464651501905
O -2.3029853104974816 -5.319708158369517 7.064464258011412
H -2.2566418492098768 -5.2769283220483345 6.0975156936605375
H -1.411777416900487 -5.071471121019859 7.352715551119132
C 2.31777304786682 -8.342435475054797 -8.064223362676
O 2.1444810786197817 -9.506048801913183 -8.285112874088481
O 2.49106501711386 -7.178822148196414 -7.843333851263516
O 6.622503663107537 4.437139125118369 -16.290760769010006
H 6.817294817455726 3.839751914016622 -15.553093985767209
H 5.770236923730175 4.832294849558341 -16.053157522623515
O 7.756109882297858 -6.780925625314445 7.106819633820266
H 8.59747978245952 -6.800873842348955 6.626542508985968
H 7.92080085187648 -7.326899124272652 7.890242742539039
O 4.573378216427242 -19.577317502229636 4.706387424523518
H 4.1133803765678 -19.046336684184727 4.038982963126226
H 3.8610276716624785 -19.908557785326693 5.27366030465012
O 12.726105880577105 -0.2825541708347745 2.035672797921075
H 13.276251584975881 -0.02232902282342364 2.789721823630972
H 12.437923454147887 -1.1812636753138204 2.2552953376486626
O 10.347236629683943 -4.352169675587829 9.194479760207484
H 10.40396811856857 -4.50014307413881 10.15043622803968
H 9.63366419934058 -3.7034414221571215 9.099991749568
O 3.414072803639428 -0.6708469400499888 -13.764600348640213
H 2.459107763212494 -0.5431240459595295 -13.86802177189257
H 3.7979410607879904 0.15452096202929155 -14.096827577613055
O 5.09865300278623 12.261121377974407 4.040272877962877
H 5.024624860817982 13.225880498401116 4.092493856986718
H 5.440105566620152 12.005143950939345 4.910242789971189
O 4.271599861484695 3.3545913246691157 6.30894099548118
H 4.6175472104414865 3.98199948887849 5.65652488276385
H 3.354779318834894 3.209448747552954 6.030848080822428
O 5.72507846555505 -11.536083023011154 -15.343101702917702
H 5.107090884206479 -12.052223397275117 -14.80397479739953
H 6.595951663826689 -11.88275547377561 -15.097418922257168
O 13.740849247157394 14.363899112486868 9.197655266597614
H 13.907832185097398 14.024440866338313 10.089760728109129
H 12.954123163503732 13.879056357705473 8.90619083182905
O -8.023046249600531 -9.71923200778304 -1.5967580297697812
H -7.139415671612627 -10.113320766651452 -1.5432939420256138
H -8.012405353115703 -9.233610631921326 -2.4352212638642627
O 4.044966389329851 -6.6469295028266355 -11.305574432271118
H 4.207192673316064 -7.525722644650566 -10.93091111198576
H 3.7792819549567636 -6.8276389796226855 -12.219750460521666
O -7.866915971180421 1.3300162376747113 4.5248743695141185
H -7.720164423123709 2.279848573337676 4.401383988625579
H -7.075710653744798 1.0304133792827888 4.997308721784339
O -5.26252770184159 -9.979485850163435 2.294097317838856
H -5.375848471845754 -10.139932259773934 1.3452123355418633
H -6.168996577425839 -9.917183959069206 2.6308384591671867
O -10.539101005870036 -2.0931656921299195 12.184423616103906
H -9.737957956637441 -1.7139247598369378 12.575976277747078
H -11.257852731062185 -1.7276803470024484 12.721804639522453
O -4.484689334501545 10.273416120099757 14.141049970903634
H -3.5360039609802603 10.228928046020373 14.333362815590329
H -4.629552029585559 9.55281067238293 13.509619426351163
O 14.627588685511089 -8.087196635381641 8.912998633727277
H 14.134295071236782 -8.24574028347109 8.094162460450423
H 15.468062312653574 -8.548680976210727 8.773004956914711
O -2.3999474260689357 -8.582654408020506 7.223310447057431
H -3.0892578317729757 -8.431758578679837 6.559195268661601
H -1.5771622202887388 -8.57979171632496 6.711472333543506
O -1.3249546407834147 16.577226463579862 -4.852745902239109
H -1.381289557480553 16.72562975164438 -3.8968326226198924
H -2.2500110723157105 16.523070463606732 -5.1361178670621035
O -12.912918094707546 -18.596867700255252 3.725665421803418
H -12.58574238991544 -18.260992608126713 2.8776610954103066
H -12.847112172985966 -17.83468069772151 4.320394350085033