194

C -5.0710522388059704 1.0783507462686561 0.47044029850746183
C -3.8153522388059704 0.1782507462686569 0.19534029850746193
C -4.11845223880597 -1.3219492537313435 0.5608402985074619
C -2.96945223880597 -2.3874492537313436 0.7034402985074619
C -2.52015223880597 0.7359507462686565 0.7384402985074618
C -2.20305223880597 0.7852507462686571 2.097440298507462
C -1.5755522388059702 1.205650746268656 -0.18965970149253808
C -0.9533522388059701 1.2695507462686564 2.508640298507462
H -2.91125223880597 0.4298507462686567 2.840840298507462
C -0.32655223880597006 1.6562507462686575 0.21554029850746192
H -1.7850522388059702 1.178550746268657 -1.2573597014925382
C 0.004447761194029898 1.6956507462686563 1.569740298507462
H -0.7158522388059702 1.2676507462686573 3.5705402985074617
H 0.3943477611940298 1.9193507462686572 -0.5551597014925382
C -1.76045223880597 -2.1592492537313435 -0.1734597014925381
C -0.5287522388059701 -1.936549253731343 0.464840298507462
C -1.8068522388059702 -2.121249253731343 -1.5681597014925381
C 0.6114477611940299 -1.614449253731343 -0.2582597014925381
H -0.4544522388059702 -1.954049253731343 1.5506402985074619
C -0.6479522388059701 -1.8270492537313432 -2.2998597014925384
H -2.74345223880597 -2.290549253731343 -2.092259701492538
C 0.5698477611940298 -1.5506492537313434 -1.6506597014925382
H 1.5072477611940298 -1.351949253731343 0.2991402985074618
H -0.7173522388059701 -1.7640492537313435 -3.3840597014925375
C 1.7791477611940298 -1.082849253731343 -2.4255597014925376
H 1.4739477611940297 -0.9102492537313429 -3.464259701492538
H 2.1252477611940295 -0.1337492537313434 -2.0010597014925384
C 1.3965477611940298 2.0964507462686566 1.997440298507462
H 1.51704776119403 1.8448507462686567 3.057640298507462
H 2.1256477611940294 1.5207507462686571 1.4165402985074618
C 3.94864776119403 -1.4275492537313434 -3.522959701492538
H 4.81734776119403 -2.087049253731343 -3.615159701492538
H 3.4305477611940303 -1.3641492537313429 -4.484459701492538
H 4.26984776119403 -0.441449253731343 -3.176459701492538
C 2.60904776119403 -3.4296492537313434 -2.8992597014925376
H 1.9825477611940296 -3.869549253731343 -2.119359701492538
H 2.06294776119403 -3.373349253731343 -3.845759701492538
H 3.5215477611940305 -4.019849253731343 -3.0234597014925377
C 3.7281477611940304 -2.060049253731343 -1.156659701492538
H 3.9048477611940298 -1.032549253731343 -0.8295597014925382
H 3.12924776119403 -2.623249253731343 -0.4404597014925382
H 4.68244776119403 -2.5769492537313434 -1.3005597014925383
C 3.1110477611940297 3.755250746268656 2.588740298507462
H 3.40124776119403 4.809350746268656 2.534540298507462
H 2.9823477611940303 3.461750746268656 3.634840298507462
H 3.86514776119403 3.1392507462686563 2.091540298507462
C 1.99744776119403 3.9574507462686572 0.40494029850746194
H 2.67914776119403 3.230350746268657 -0.04295970149253803
H 1.03214776119403 3.981150746268657 -0.10175970149253821
H 2.4399477611940297 4.958250746268657 0.368240298507462
C 0.7418477611940297 4.4992507462686575 2.475440298507462
H -0.18475223880597014 4.424250746268656 1.901240298507462
H 0.57844776119403 4.189650746268656 3.511940298507462
H 1.1210477611940297 5.524350746268658 2.4432402985074617
N 3.00114776119403 -2.025349253731343 -2.490159701492538
N 1.7831477611940298 3.586450746268657 1.862540298507462
C -3.55075223880597 -3.8435492537313434 0.6444402985074619
H -2.62515223880597 -2.2736492537313433 1.7424402985074618
H -4.67195223880597 -1.3478492537313436 1.5102402985074619
H -4.83415223880597 -1.6757492537313432 -0.1945597014925382
H -3.7169522388059697 0.17335074626865676 -0.900559701492538
H -3.9132522388059705 -4.043149253731343 -0.34225970149253815
H -4.35435223880597 -3.9354492537313432 1.3449402985074619
H -2.78115223880597 -4.545049253731343 0.8904402985074619
H -5.24235223880597 1.138950746268657 1.5249402985074618
H -5.92805223880597 0.6501507462686567 -0.006059701492538094
H -4.89895223880597 2.059650746268657 0.08004029850746197
C 3.9635511698522183 -1.3081598755644566 2.043053362398433
O 2.882882965451066 -0.7468227303787096 2.1370338924624024
O 4.833726347386264 -1.043073305704531 1.2057029369590648
O 4.354231797204978 -2.2281894449865742 2.770763897707774
O 2.341719406134513 4.7848262281722675 -2.9690929601095712
H 3.1166869675626456 5.332849690829458 -2.773995753539724
H 1.799083559915096 5.343548998236897 -3.545579862744005
O 0.1549140192585341 -5.071226453396234 -10.307506425981789
H -0.39984361405700497 -5.819403410096676 -10.574793849256077
H -0.4472984610013313 -4.3125039557790945 -10.332848969833375
O 1.1918502010897873 -6.972958128198805 7.312719023992347
H 1.6160891253263616 -6.7720490453940885 6.465001952966192
H 1.536742577136047 -6.295368217324436 7.913454494833238
O 5.266012794265043 4.421480575516239 9.492253170574442
H 4.898293945171812 3.567626039459437 9.218971930499729
H 4.731596207687355 5.071168878440786 9.011351969355655
O -0.08874904584986343 6.94919655388227 5.203463815480602
H -0.1307926792741001 6.028122832782826 4.905432122386546
H -1.011440307017744 7.176032147853334 5.393591125912902
O 2.297914718449566 -6.986448141920152 -0.439334865037755
H 2.083895236254757 -7.065502911369933 -1.3810956422887026
H 2.6232780917539102 -6.078217152396376 -0.34868670300079363
O -8.078349813014961 7.2967535229563145 -1.9395249780371955
H -7.965674289620642 7.259107008849218 -0.9778315116439789
H -8.847507664906283 6.73178519218715 -2.1073609944396026
O 4.872199106202854 4.485059031668285 0.005115526493574649
H 5.166963745703658 4.967528839265295 -0.7818432074672759
H 5.252349825710459 3.600750576479851 -0.10644580569682732
O -1.171265549843251 -0.16485587389504963 -5.905661495765777
H -2.0737262486494648 -0.514491583334264 -5.857839798858011
H -1.2923943214560198 0.7611056708700579 -6.164282806959957
O 6.989453792493312 -4.5058439974039395 -3.520577183309224
H 6.938962096148861 -3.781575542904595 -2.8788193229620425
H 7.549279010391762 -4.15282636561613 -4.228345663358936
O -2.0513982003636544 -2.347112597264679 5.074121207586984
H -1.3096238197479386 -2.0693179181846153 4.515938225548856
H -1.9632203274983282 -1.8007564331882822 5.869534024313412
O -0.2021597273422433 -4.759051301313484 3.349643807842628
H -0.40748486531729355 -4.513481118356848 4.264249859571006
H -0.5863587209378243 -5.643349530201479 3.252846493800881
O -1.025493766474057 -9.625161246237598 -7.330210433688781
H -1.2274238478375623 -9.492150830557769 -6.391860910077665
H -1.8699702113503807 -9.462479311513256 -7.776703509181998
O -3.150900297045984 -7.258871637697757 -3.6800925734027023
H -2.5230302996998475 -6.91936434128105 -3.0247442545581493
H -3.6207662898229205 -7.964349715783652 -3.2105304641221792
O -0.6569275591413768 -9.483896461419883 1.0574618548293178
H -0.681002913584428 -10.124056575577661 1.7844988294392359
H -0.9753147856564444 -9.986367979890588 0.2925344782648578
O 9.883041061591795 -3.7341192695682106 -1.3342479050664968
H 9.250261150556224 -4.0220450907002725 -0.6592251924002914
H 9.65302476856421 -4.264330665869764 -2.1120205739574818
O 6.758437819431093 -5.251539198788954 -7.32828532248695
H 6.691995762471793 -5.474347492157172 -8.268981487235887
H 7.3369035103942055 -4.474314376876455 -7.312130914987754
O 5.857364771122823 1.037039694777841 5.1506489648822065
H 5.803110050048556 1.2775359639113346 4.213533536200114
H 6.148189634582371 1.8528513589731606 5.585199504700761
O -7.916355544131041 2.4774326292653903 2.464900393457716
H -7.283466802788236 2.8624530879542776 3.0895430467984246
H -7.389016602378736 2.3132441259627288 1.6687108932790273
O 1.9061772775428136 -3.6664961576668254 6.289573827298501
H 1.1310865701793733 -3.927377321860276 6.809326432321231
H 2.2348681513139104 -2.8745152396947713 6.740894643755855
C 10.510116423098543 -1.9008711835185066 1.710012139308729
O 10.640644938810478 -1.5025321293435931 0.5888045038526222
O 10.379587907386608 -2.2992102376934205 2.8312197747648353
O 14.075289423839386 6.857895580065189 2.540510578221468
H 14.701164112610373 6.1680286750582125 2.2734302827447723
H 13.671420810920802 6.507403678714268 3.348599382058418
O 3.819634803640997 11.942375433301132 -5.637341908518985
H 3.985930159303545 11.965244434315139 -4.68298860896075
H 4.142999699913171 12.79996338559157 -5.951889189933372
O -8.548513995575288 -12.59262205479162 0.9066916432504541
H -9.014247869377446 -12.59429271565247 1.7564307353166746
H -9.225573145947163 -12.320236884407656 0.26922856969041176
O -0.7718963119926885 18.08529166840707 9.320533219840785
H -0.1902480362486738 18.64824705010565 8.7878664586846
H -0.2170228803165406 17.81641302083478 10.068050237707022
O 13.737173285175983 10.150950506003928 14.453553384583909
H 13.787033756425686 9.326937307360005 13.946125026322994
H 13.070296375475305 9.967859117334179 15.132313043817616
O -12.398469706356853 3.045015518702551 11.60349635159118
H -12.306261320077109 3.103995793854007 10.640695075344235
H -11.726548753869345 3.656301362018192 11.940859354408863
O 7.516228179449502 -7.321341592453372 -5.799339852463609
H 7.0720007949282175 -8.18110962937965 -5.7500619626821425
H 8.045122979830824 -7.28432918657664 -4.988252732456877
O -0.9838879730223521 5.9311612822120425 -15.910936336921694
H -0.9282213640559253 5.711147993394626 -16.852988744322644
H -1.8364802852409134 6.383798757128891 -15.826274599715886
O -7.722918816326999 13.432040701064242 3.3471877317165517
H -8.65314376134841 13.674886142445725 3.226047316659714
H -7.76032980468093 12.52868753057336 3.6957783391838976
O 8.901812652094987 6.115459676501744 -9.966119402023732
H 9.3556772964006 5.953714829558214 -9.125397779822572
H 8.704525340207935 5.227528764122209 -10.30021273585311
O 13.981948571903715 1.3272916886283501 4.554528412021995
H 13.478638584775412 1.4932941265270996 3.7433011908511444
H 14.645785042292188 2.033078950237395 4.56667033248695
O 6.375032689100268 15.472497555559482 -8.588141189420442
H 5.555969205008001 15.340085619768917 -8.087572068132646
H 6.8308860931995525 14.620073057169506 -8.520820369344552
O 4.460798730341721 -18.296836658448754 -0.12951627209991567
H 4.930396163879168 -17.906764225837158 -0.8820381021032184
H 3.948206857993326 -17.559362157925115 0.23427333437583142
O 5.665571444295362 -11.739288837843125 9.140896524662551
H 5.983426401444129 -10.834946005088284 9.282669667256318
H 5.585380069460957 -11.810925352357062 8.177880690166326
O -3.8802157186758195 -3.2913642636330636 -15.191538173511752
H -2.9729945268230105 -3.0120569518587748 -14.996847414761904
H -4.014259451135627 -3.025275567800618 -16.11359621292057
O 9.472159668364153 -18.40050893128657 -1.2241189089721463
H 9.042323883182735 -19.18756546355545 -1.5912027818000904
H 9.693799045769172 -18.656799156996417 -0.31629004245097825
O -10.181601186494467 7.185197537500274 5.8415635843141835
H -10.638575925564586 7.886668217253131 6.329498344501302
H -10.740584530142971 7.038791190173834 5.063704504990643
O -0.5235022076259739 -1.837935783639447 19.065614483771725
H -0.793695477846013 -2.5764590442337383 18.499446357515062
H 0.41512982400968745 -1.7154140444381865 18.858442388858798
O -6.820729066314229 -8.609193972943528 -8.83682403111058
H -7.507053602622126 -8.940207711536123 -8.238195688459898
H -6.8205358112551355 -7.651975547656365 -8.686176119597532
O 11.651374110031284 0.6054494013076503 9.710910557401919
H 11.52055597306092 -0.2897094169660459 9.363715134035708
H 12.130579424973838 0.4665946502919702 10.541599168465764