194

C -5.0710522388059704 1.0783507462686561 0.47044029850746183
C -3.8153522388059704 0.1782507462686569 0.19534029850746193
C -4.11845223880597 -1.3219492537313435 0.5608402985074619
C -2.96945223880597 -2.3874492537313436 0.7034402985074619
C -2.52015223880597 0.7359507462686565 0.7384402985074618
C -2.20305223880597 0.7852507462686571 2.097440298507462
C -1.5755522388059702 1.205650746268656 -0.18965970149253808
C -0.9533522388059701 1.2695507462686564 2.508640298507462
H -2.91125223880597 0.4298507462686567 2.840840298507462
C -0.32655223880597006 1.6562507462686575 0.21554029850746192
H -1.7850522388059702 1.178550746268657 -1.2573597014925382
C 0.004447761194029898 1.6956507462686563 1.569740298507462
H -0.7158522388059702 1.2676507462686573 3.5705402985074617
H 0.3943477611940298 1.9193507462686572 -0.5551597014925382
C -1.76045223880597 -2.1592492537313435 -0.1734597014925381
C -0.5287522388059701 -1.936549253731343 0.464840298507462
C -1.8068522388059702 -2.121249253731343 -1.5681597014925381
C 0.6114477611940299 -1.614449253731343 -0.2582597014925381
H -0.4544522388059702 -1.954049253731343 1.5506402985074619
C -0.6479522388059701 -1.8270492537313432 -2.2998597014925384
H -2.74345223880597 -2.290549253731343 -2.092259701492538
C 0.5698477611940298 -1.5506492537313434 -1.6506597014925382
H 1.5072477611940298 -1.351949253731343 0.2991402985074618
H -0.7173522388059701 -1.7640492537313435 -3.3840597014925375
C 1.7791477611940298 -1.082849253731343 -2.4255597014925376
H 1.4739477611940297 -0.9102492537313429 -3.464259701492538
H 2.1252477611940295 -0.1337492537313434 -2.0010597014925384
C 1.3965477611940298 2.0964507462686566 1.997440298507462
H 1.51704776119403 1.8448507462686567 3.057640298507462
H 2.1256477611940294 1.5207507462686571 1.4165402985074618
C 3.94864776119403 -1.4275492537313434 -3.522959701492538
H 4.81734776119403 -2.087049253731343 -3.615159701492538
H 3.4305477611940303 -1.3641492537313429 -4.484459701492538
H 4.26984776119403 -0.441449253731343 -3.176459701492538
C 2.60904776119403 -3.4296492537313434 -2.8992597014925376
H 1.9825477611940296 -3.869549253731343 -2.119359701492538
H 2.06294776119403 -3.373349253731343 -3.845759701492538
H 3.5215477611940305 -4.019849253731343 -3.0234597014925377
C 3.7281477611940304 -2.060049253731343 -1.156659701492538
H 3.9048477611940298 -1.032549253731343 -0.8295597014925382
H 3.12924776119403 -2.623249253731343 -0.4404597014925382
H 4.68244776119403 -2.5769492537313434 -1.3005597014925383
C 3.1110477611940297 3.755250746268656 2.588740298507462
H 3.40124776119403 4.809350746268656 2.534540298507462
H 2.9823477611940303 3.461750746268656 3.634840298507462
H 3.86514776119403 3.1392507462686563 2.091540298507462
C 1.99744776119403 3.9574507462686572 0.40494029850746194
H 2.67914776119403 3.230350746268657 -0.04295970149253803
H 1.03214776119403 3.981150746268657 -0.10175970149253821
H 2.4399477611940297 4.958250746268657 0.368240298507462
C 0.7418477611940297 4.4992507462686575 2.475440298507462
H -0.18475223880597014 4.424250746268656 1.901240298507462
H 0.57844776119403 4.189650746268656 3.511940298507462
H 1.1210477611940297 5.524350746268658 2.4432402985074617
N 3.00114776119403 -2.025349253731343 -2.490159701492538
N 1.7831477611940298 3.586450746268657 1.862540298507462
C -3.55075223880597 -3.8435492537313434 0.6444402985074619
H -2.62515223880597 -2.2736492537313433 1.7424402985074618
H -4.67195223880597 -1.3478492537313436 1.5102402985074619
H -4.83415223880597 -1.6757492537313432 -0.1945597014925382
H -3.7169522388059697 0.17335074626865676 -0.900559701492538
H -3.9132522388059705 -4.043149253731343 -0.34225970149253815
H -4.35435223880597 -3.9354492537313432 1.3449402985074619
H -2.78115223880597 -4.545049253731343 0.8904402985074619
H -5.24235223880597 1.138950746268657 1.5249402985074618
H -5.92805223880597 0.6501507462686567 -0.006059701492538094
H -4.89895223880597 2.059650746268657 0.08004029850746197
C 3.175587179178523 -1.5638760422225384 2.3084810958031725
O 3.5040903927597853 -0.4681845608631181 1.8803207112004148
O 3.8779704676864064 -2.2903218088932586 3.0209175689086982
O 2.089913396167032 -2.115816483923839 2.095590114086959
O -10.017116942921023 2.5611316042761385 -2.8162489012988448
H -10.380972945625915 2.935852387301985 -3.632435461445552
H -10.760290055683035 2.0728461162524194 -2.4312385755242487
O 9.44832318183228 5.2566399966620025 -4.929882670725727
H 9.134341911901533 4.3419936444920415 -4.868196614806574
H 8.878037254814412 5.654876984359982 -5.604525692904575
O -2.0231472675412965 1.816271507213146 -6.784657527286866
H -1.5074523949346903 1.021045552861459 -6.986255733610002
H -2.9437290805293808 1.5202712762609778 -6.8469064884977495
O -7.6172889279073726 2.3785906665654704 4.311860462300679
H -7.7684799825305495 1.5698581975804669 3.799942094285473
H -8.164764846583001 3.0429471367893504 3.867043035436643
O 0.14866011878689234 8.655102111774521 -8.478250551881734
H -0.2944097050741554 8.65171431323884 -7.616482015147641
H 0.19805157627969194 7.717971827200024 -8.719723651750147
O 0.0404919656808973 -5.373719835887021 6.224718495060969
H -0.13618161913214077 -4.543235813020043 6.691676832701484
H 0.25603888346854964 -5.093650005253227 5.322464450735868
O -6.214865244348614 1.6490776877385274 -11.2018241486689
H -6.1158346698215915 1.0685011517665568 -11.97129876689073
H -7.016583136507566 2.158140750913815 -11.394347298972443
O -1.8472821593813855 9.29617165938117 -2.5749445145337395
H -1.7037509080435196 9.100512793062174 -1.636816727491829
H -1.599680662170432 8.474992968528197 -3.0258558146448493
O 4.974495643612548 -2.6282263978039686 5.02994140889109
H 5.709480488521869 -2.1060005125769012 4.674913579767191
H 4.235791946074369 -2.0018682731491744 5.060833013290208
O 7.6893120283411145 -4.557566026320413 -6.660904137566442
H 7.515142754144698 -4.426442623669788 -5.716743624675114
H 7.472792850173414 -3.7015033019968637 -7.05995050305462
O -5.630458604444691 5.812363380571893 -0.26660705004320606
H -6.299508990515925 5.89093025733215 -0.9631457666082457
H -5.639752379483111 4.870692797467709 -0.03828253764525602
O -2.4934214643072603 5.33013252132173 2.8861349338619076
H -2.9462865450256075 5.403413272721626 2.032606664242071
H -3.138299140484253 5.672193160761869 3.5233862547819688
O 4.104458614288906 -6.100524249470312 -4.489282962254892
H 3.1404397549872476 -6.064411651308368 -4.580556595165635
H 4.39548180743923 -6.591446865703085 -5.2723937016907385
O -4.679589710579423 -4.7493824072266175 -6.612420512984883
H -4.765516425688301 -4.428259797906282 -5.702220410637111
H -4.574058187314048 -3.941337689989022 -7.136718879224665
O -11.663535981902587 0.4242671719834257 -5.587279354237204
H -10.879722118543349 -0.09826713204020177 -5.814350016420609
H -12.027086221380827 -0.025011897969718477 -4.809499510722761
O 8.675719046535638 -2.5320580921348443 -3.094318286840844
H 8.152525672263746 -2.549611860687063 -3.909749409148306
H 8.951749397250797 -3.4530153926070315 -2.9734595242663078
O 6.889911075403346 6.640500993879494 4.739913860676254
H 6.796549344059155 6.566015149326595 3.778299175377795
H 7.11442355823484 7.572395599299278 4.8817889245259085
O 7.936708258949176 -6.785585850697652 -3.4121476362819054
H 8.764296686790319 -7.149645217945144 -3.0635425185300558
H 8.057137573479556 -6.80923385799402 -4.373344544439987
O 0.7637864793792186 -9.958606580781902 -0.06058052301948236
H 0.8426919872570426 -9.911349689982654 -1.0252089820639643
H 1.6212290356290868 -9.641064736839889 0.26023310570847025
O 2.402315565961555 -2.7529955469963623 5.792745485208327
H 2.222195326929972 -2.7697225916893027 4.840776860532574
H 2.639812133247832 -3.6688057122756232 6.002147170966602
C 17.60933839413282 4.720358193430865 10.79951016697655
O 17.469761431932923 4.332037953237709 9.675880370300002
O 17.748915356332716 5.10867843362402 11.923139963653098
O 8.698002591641043 14.724967806631556 4.152847877394623
H 8.798484889357233 14.537604037938872 3.2074561686691077
H 7.947190597015013 14.174697922223544 4.4220064688222
O 6.888763137304913 -5.1037864394513655 -19.68128987732323
H 6.0643391233957065 -5.182773360552084 -19.17824567600006
H 6.593774082679362 -4.957058306136114 -20.59256055985666
O -13.587372973315835 0.9911958466991249 -1.9430023059183166
H -12.894630359528296 0.7765530453625447 -2.5856557862459315
H -13.182654328243391 1.6679847495665077 -1.379866848336138
O 14.972581589831899 14.026696323311604 -1.686466406247514
H 14.256134728608314 14.349554724034144 -2.253417643150443
H 14.694774523424845 14.277357468351696 -0.7926240440149463
O 20.33016080373376 5.934415271067215 6.024160956915867
H 19.82415446340874 6.299852129081095 5.282958661145124
H 21.01293433829128 5.3948169640605785 5.597996772729305
O 5.120223243769674 7.170896541149972 8.707875068775117
H 5.285526898088064 7.71155340430574 7.920898439457858
H 5.927872288226851 6.64415649197021 8.803843219103804
O -7.007333165770819 -13.251130070485514 -14.005173993050114
H -6.170243133198527 -13.238195463059794 -13.517239232862995
H -6.833380420866915 -12.700096823254162 -14.783033072373655
O -7.289745182136193 7.5611167042733465 13.865163570877622
H -6.326024898773198 7.500245626176682 13.78450822892122
H -7.602041064295529 7.558185930209786 12.947871558021461
O 1.3088979625707005 19.854763298073884 -5.128750203608518
H 1.1434453229931298 19.242357437197896 -4.396253212132404
H 2.0944077041442117 19.491528522135976 -5.56463652794372
O -2.7697948064729765 -14.150789959163895 15.068358406883812
H -3.0384255973163903 -13.24657384135595 14.846552033199087
H -2.3415866503549676 -14.472492601677683 14.260826903390814
O -2.037916322732414 2.630451953424619 -14.924722143664066
H -1.9381410839498314 2.5573826816694054 -13.963642989717297
H -2.979176561744106 2.8247165619354835 -15.048222623969904
O -8.806083480952644 -6.813406928404439 -19.851761749807192
H -9.221026211440368 -6.820762869599545 -18.976127249890403
H -8.496030122476078 -7.723622503620421 -19.971496731461027
O -5.731254172294433 8.42213426466464 4.583990058580395
H -5.253842016822491 9.014572384836773 3.9839383404139137
H -5.029034793172287 7.982053476857995 5.086164120125584
O 12.23971448476127 1.209073539964245 5.988813070199689
H 11.391781554233612 1.3237092751842194 5.534021084301353
H 12.176187071172546 0.32635891194030053 6.38345353631445
O 7.0036577340664135 10.18376414654874 -7.917024965319856
H 6.2573026713019155 10.048063958631843 -8.519940329351261
H 6.6936655764684705 9.818261587549681 -7.07484049271726
O 9.732688619029908 -13.64740510973538 5.228424635179518
H 9.21984360030424 -13.417555191321668 4.4390411043952245
H 9.14315696293115 -13.423164676707842 5.964040430926916
O 14.014723768825144 0.11534900897308287 -8.437374617713395
H 14.873065632804657 -0.26788440669722435 -8.672637769426203
H 13.631552440434483 -0.5283599786067761 -7.822736173822802
O 24.060457982394183 -8.625663058557686 1.960383455939628
H 24.611674693643543 -9.010984370640106 1.2627768471732512
H 24.696944286003678 -8.355834870391652 2.6393826300838614
O -7.472709494513923 10.799899497092936 9.896885460248136
H -7.41608533995128 11.546042067739787 9.281229447292382
H -8.195774330378908 10.259775878638536 9.5441735888527
O 2.745221262838152 14.770676566380178 -3.365398263617526
H 2.2161045816383766 14.163393046988228 -2.826687189245498
H 3.549448603458788 14.267735350751032 -3.563465076889553