194

C -5.0710522388059704 1.0783507462686561 0.47044029850746183
C -3.8153522388059704 0.1782507462686569 0.19534029850746193
C -4.11845223880597 -1.3219492537313435 0.5608402985074619
C -2.96945223880597 -2.3874492537313436 0.7034402985074619
C -2.52015223880597 0.7359507462686565 0.7384402985074618
C -2.20305223880597 0.7852507462686571 2.097440298507462
C -1.5755522388059702 1.205650746268656 -0.18965970149253808
C -0.9533522388059701 1.2695507462686564 2.508640298507462
H -2.91125223880597 0.4298507462686567 2.840840298507462
C -0.32655223880597006 1.6562507462686575 0.21554029850746192
H -1.7850522388059702 1.178550746268657 -1.2573597014925382
C 0.004447761194029898 1.6956507462686563 1.569740298507462
H -0.7158522388059702 1.2676507462686573 3.5705402985074617
H 0.3943477611940298 1.9193507462686572 -0.5551597014925382
C -1.76045223880597 -2.1592492537313435 -0.1734597014925381
C -0.5287522388059701 -1.936549253731343 0.464840298507462
C -1.8068522388059702 -2.121249253731343 -1.5681597014925381
C 0.6114477611940299 -1.614449253731343 -0.2582597014925381
H -0.4544522388059702 -1.954049253731343 1.5506402985074619
C -0.6479522388059701 -1.8270492537313432 -2.2998597014925384
H -2.74345223880597 -2.290549253731343 -2.092259701492538
C 0.5698477611940298 -1.5506492537313434 -1.6506597014925382
H 1.5072477611940298 -1.351949253731343 0.2991402985074618
H -0.7173522388059701 -1.7640492537313435 -3.3840597014925375
C 1.7791477611940298 -1.082849253731343 -2.4255597014925376
H 1.4739477611940297 -0.9102492537313429 -3.464259701492538
H 2.1252477611940295 -0.1337492537313434 -2.0010597014925384
C 1.3965477611940298 2.0964507462686566 1.997440298507462
H 1.51704776119403 1.8448507462686567 3.057640298507462
H 2.1256477611940294 1.5207507462686571 1.4165402985074618
C 3.94864776119403 -1.4275492537313434 -3.522959701492538
H 4.81734776119403 -2.087049253731343 -3.615159701492538
H 3.4305477611940303 -1.3641492537313429 -4.484459701492538
H 4.26984776119403 -0.441449253731343 -3.176459701492538
C 2.60904776119403 -3.4296492537313434 -2.8992597014925376
H 1.9825477611940296 -3.869549253731343 -2.119359701492538
H 2.06294776119403 -3.373349253731343 -3.845759701492538
H 3.5215477611940305 -4.019849253731343 -3.0234597014925377
C 3.7281477611940304 -2.060049253731343 -1.156659701492538
H 3.9048477611940298 -1.032549253731343 -0.8295597014925382
H 3.12924776119403 -2.623249253731343 -0.4404597014925382
H 4.68244776119403 -2.5769492537313434 -1.3005597014925383
C 3.1110477611940297 3.755250746268656 2.588740298507462
H 3.40124776119403 4.809350746268656 2.534540298507462
H 2.9823477611940303 3.461750746268656 3.634840298507462
H 3.86514776119403 3.1392507462686563 2.091540298507462
C 1.99744776119403 3.9574507462686572 0.40494029850746194
H 2.67914776119403 3.230350746268657 -0.04295970149253803
H 1.03214776119403 3.981150746268657 -0.10175970149253821
H 2.4399477611940297 4.958250746268657 0.368240298507462
C 0.7418477611940297 4.4992507462686575 2.475440298507462
H -0.18475223880597014 4.424250746268656 1.901240298507462
H 0.57844776119403 4.189650746268656 3.511940298507462
H 1.1210477611940297 5.524350746268658 2.4432402985074617
N 3.00114776119403 -2.025349253731343 -2.490159701492538
N 1.7831477611940298 3.586450746268657 1.862540298507462
C -3.55075223880597 -3.8435492537313434 0.6444402985074619
H -2.62515223880597 -2.2736492537313433 1.7424402985074618
H -4.67195223880597 -1.3478492537313436 1.5102402985074619
H -4.83415223880597 -1.6757492537313432 -0.1945597014925382
H -3.7169522388059697 0.17335074626865676 -0.900559701492538
H -3.9132522388059705 -4.043149253731343 -0.34225970149253815
H -4.35435223880597 -3.9354492537313432 1.3449402985074619
H -2.78115223880597 -4.545049253731343 0.8904402985074619
H -5.24235223880597 1.138950746268657 1.5249402985074618
H -5.92805223880597 0.6501507462686567 -0.006059701492538094
H -4.89895223880597 2.059650746268657 0.08004029850746197
C 1.4309255962719398 1.6012954772562626 -4.147703209022275
O 1.4547957082247012 2.460953128678628 -3.28041177086187
O 2.324438585756017 1.4026860447643357 -4.978859208247728
O 0.5095496474230599 0.7969034121948633 -4.328446537942275
O 5.376501606179966 4.109426221664376 -6.769426718028093
H 6.127893747255097 3.9448836094996413 -7.358750852959403
H 4.820936504726854 3.322311536154215 -6.873156338685046
O 2.769416941956288 -0.0765808686419378 -8.460790939512766
H 2.231303673060427 -0.8595169654457333 -8.651611627751354
H 3.0681123848176997 0.22049035735779832 -9.333425836475314
O -5.805399694152841 7.858694701236294 2.523660727435801
H -5.053402664550518 7.50414732978324 3.0214196909563125
H -5.504700721656601 8.734238677547157 2.237365743572189
O -7.89502383873692 3.0114357928529603 -4.227203709460614
H -7.724373492913923 3.0882522016623266 -3.2764434580259403
H -7.404634967465697 3.752478605301253 -4.613644195631589
O 4.905710914429715 4.768967705305263 -2.8607514630096262
H 4.777241378959492 4.658639347200181 -3.814842962161517
H 5.240538784002332 3.907881946260622 -2.5685468127591986
O 6.3824076298844306 4.516795651941722 5.924404445560003
H 6.327806776830505 4.342817872010587 6.876096536436048
H 6.7419076817937205 3.6955585249154654 5.556584872710926
O 4.295985321274287 9.77540404535831 -1.5668643908666664
H 4.465877425640645 10.400217783213858 -0.8459539784290637
H 3.5127582037523104 10.135751865774335 -2.0092066508867057
O -3.8088809257571414 -5.72137074386424 -2.1027872902338145
H -3.81192314565404 -5.717232794691339 -3.0717769595155575
H -4.518537870973036 -6.338423939876577 -1.8691330206434538
O -3.1689909738564968 -9.429382372726206 0.11530724108860602
H -3.4014074830342977 -8.488677627190796 0.1202574823721787
H -2.586222316257698 -9.522454482036528 -0.6532499906703697
O 9.316719697509665 -0.13277162004791904 -2.9877880209707635
H 9.107345999594251 0.7981755015426837 -2.8190649688308778
H 8.449217614748775 -0.5564365029053921 -3.07091531936835
O 7.071464353222873 -3.875223134937401 2.415176123085427
H 6.835030373020096 -4.20592512240693 1.535572504749772
H 6.247238778349887 -3.491383925974309 2.750260601520169
O -7.087927840763678 -5.428810730661109 4.015224085664091
H -6.79325979176107 -4.591569529766663 3.626424305157691
H -6.269894471656151 -5.840612683607648 4.331771874909255
O 5.81315877170405 0.10101364635546917 -1.563289103627782
H 6.035563935516657 0.4371123127936283 -2.4445047335549748
H 5.900637285865758 0.8760198335861054 -0.9882457455978941
O 10.065543763543364 -5.505337328897989 0.820610213528182
H 10.963629502742876 -5.208571919931863 0.6100403819101737
H 9.662252527169922 -4.7397208243961035 1.2566715521018912
O -0.14087366037986926 -0.9911794692231531 -7.703951108895106
H 0.3431587478164898 -1.8263344190663462 -7.6191207224286535
H 0.05688267168651073 -0.6965854979503787 -8.605654369129528
O 9.235508200575389 3.9508969407328824 -5.2080539990918595
H 8.733674369378848 4.223086978560412 -4.425083536000147
H 9.692056051712118 4.75912327049155 -5.4860759475190815
O 2.020964218466651 -7.572066862136955 4.766962542295598
H 1.7360900106103516 -7.240178543189587 3.9022867728047794
H 1.562246164903191 -6.999640235472696 5.400103481361083
O -4.3814963533481075 -1.5128980868271542 4.589443020067877
H -5.329785794018741 -1.3458622412312287 4.4807530025932625
H -3.981093494550267 -1.1075804464597983 3.805633664820344
O -2.6130103185701863 -0.36606287574072316 7.853098318245349
H -3.129277392208329 -1.1372759139349753 7.57441190792669
H -1.8432061633272936 -0.374652824971804 7.2646344538976875
O -1.3682270425108207 4.749487897309169 -9.133376025513982
H -1.1050319143240364 4.599903422707085 -10.053875980080393
H -1.7766117145215583 3.911891039539378 -8.867640427934635
C 5.964602145395822 -12.279947557361119 -9.144747631050308
O 7.011920193210237 -12.329989767339377 -9.72218935212932
O 4.9172840975814065 -12.229905347382864 -8.567305909971292
O 6.306928475891217 -4.636640854864076 12.292789740316973
H 6.293987331464851 -4.853797056269171 11.348521204426762
H 5.970053866560121 -5.437542609465363 12.721781373527463
O 2.9594757368831752 -12.054275703761606 10.99957357221089
H 3.107133361985231 -12.504207492145483 11.8449882446947
H 2.095094148522809 -11.629974055597621 11.108084057275414
O -9.039868616413441 -20.756216268573418 7.7612679221999175
H -9.632271197781627 -20.17089514944129 7.265863313838001
H -9.329745363638045 -20.658849976603523 8.680753224369841
O 6.180855350022689 10.361033852063745 -5.961840555437794
H 6.843361399150652 10.448952388267525 -6.6634981804663
H 6.560113084480683 9.700042513168503 -5.36332909768676
O -4.580491620294376 -13.239236889559214 12.344763852818673
H -5.173156738456878 -13.337054282116132 11.584403956238907
H -3.712344743074879 -13.496185581912489 11.999422987336496
O -9.016846870208026 12.592805301719366 -7.484770223740078
H -9.862819533908969 13.064051514573864 -7.449775709298131
H -9.213714571197615 11.79640452512831 -8.000474456466783
O -7.712731406984328 12.339896876675137 -10.08508093506039
H -7.6448122115909305 11.57815147110249 -10.680142509089562
H -7.47574275470838 11.980582498222056 -9.216926858626199
O -3.604327264158746 -11.930915346905346 -1.3347417132657098
H -3.5714140497105595 -11.82420379412082 -0.3721947161185555
H -3.7542951203048514 -11.032310527616506 -1.664864364978392
O 3.1187694905945955 -6.341732198309477 13.880585521011195
H 2.8386923206223713 -6.299519249088731 12.953902078470843
H 3.9082029820398 -5.7807051852665285 13.912293525059733
O -2.9056125275554674 -18.33968535352881 -0.7344851643053747
H -2.833544581755275 -18.396949876366378 -1.6991065110069326
H -1.9857997181067253 -18.291583274144905 -0.43349923467916
O 15.175734032959292 0.6057800155485813 1.2084088506327246
H 14.598641645541822 1.1985888526883908 0.7039195882160207
H 15.3241155369738 -0.14170331409171744 0.609899414219023
O 7.900500828918913 15.942779490521264 11.35068692130615
H 8.015465707442349 14.988481210477481 11.473427404894766
H 8.57082433786751 16.17636206091407 10.691090438250386
O -6.306793373034583 0.9742566093588716 12.317738952108003
H -5.651234609118448 0.8528692104471381 11.614549672227973
H -6.943706388352719 0.25908930670962527 12.169957070810733
O 0.2476926913048425 -15.47129477768312 2.6978233910606084
H 0.4900349547757248 -14.749836488468485 3.29760295153204
H 0.9130315182772106 -16.153912048023713 2.871949356544758
O -7.104922780530533 -17.942374635894133 -4.614236252212519
H -6.961896819333168 -17.789789501086393 -3.668070987600003
H -7.384541090171949 -18.868911007911354 -4.662256003799191
O -5.8621012053963595 -5.390621156316032 14.156139227325118
H -5.80346435389077 -5.115191494215269 13.228956625147655
H -5.316964459826075 -4.742944573550194 14.627629330154228
O -0.6548345762716803 -2.161098075960437 -15.64988088134998
H -0.005502943659466908 -2.8336708535874364 -15.39496590222113
H -0.11871384665244644 -1.453465214361937 -16.038200647468653
O 19.341761863937943 -5.873082253343187 4.372478815747301
H 19.65377618857518 -5.487721092822581 5.205011814542773
H 19.937752751072683 -6.622469604273414 4.2235647297174035
O 6.883208961084939 16.279811866421763 1.033288347266871
H 7.643961674457382 16.06966355760351 1.5954808003443688
H 7.207321526544749 16.9871045495101 0.45566385881372096
O 11.151945218966226 -10.296246337960085 -10.436950735944428
H 11.393201804458489 -9.998466863495997 -9.54695635312816
H 10.33813492934539 -9.808678961355305 -10.634315398632502