194

C -5.0710522388059704 1.0783507462686561 0.47044029850746183
C -3.8153522388059704 0.1782507462686569 0.19534029850746193
C -4.11845223880597 -1.3219492537313435 0.5608402985074619
C -2.96945223880597 -2.3874492537313436 0.7034402985074619
C -2.52015223880597 0.7359507462686565 0.7384402985074618
C -2.20305223880597 0.7852507462686571 2.097440298507462
C -1.5755522388059702 1.205650746268656 -0.18965970149253808
C -0.9533522388059701 1.2695507462686564 2.508640298507462
H -2.91125223880597 0.4298507462686567 2.840840298507462
C -0.32655223880597006 1.6562507462686575 0.21554029850746192
H -1.7850522388059702 1.178550746268657 -1.2573597014925382
C 0.004447761194029898 1.6956507462686563 1.569740298507462
H -0.7158522388059702 1.2676507462686573 3.5705402985074617
H 0.3943477611940298 1.9193507462686572 -0.5551597014925382
C -1.76045223880597 -2.1592492537313435 -0.1734597014925381
C -0.5287522388059701 -1.936549253731343 0.464840298507462
C -1.8068522388059702 -2.121249253731343 -1.5681597014925381
C 0.6114477611940299 -1.614449253731343 -0.2582597014925381
H -0.4544522388059702 -1.954049253731343 1.5506402985074619
C -0.6479522388059701 -1.8270492537313432 -2.2998597014925384
H -2.74345223880597 -2.290549253731343 -2.092259701492538
C 0.5698477611940298 -1.5506492537313434 -1.6506597014925382
H 1.5072477611940298 -1.351949253731343 0.2991402985074618
H -0.7173522388059701 -1.7640492537313435 -3.3840597014925375
C 1.7791477611940298 -1.082849253731343 -2.4255597014925376
H 1.4739477611940297 -0.9102492537313429 -3.464259701492538
H 2.1252477611940295 -0.1337492537313434 -2.0010597014925384
C 1.3965477611940298 2.0964507462686566 1.997440298507462
H 1.51704776119403 1.8448507462686567 3.057640298507462
H 2.1256477611940294 1.5207507462686571 1.4165402985074618
C 3.94864776119403 -1.4275492537313434 -3.522959701492538
H 4.81734776119403 -2.087049253731343 -3.615159701492538
H 3.4305477611940303 -1.3641492537313429 -4.484459701492538
H 4.26984776119403 -0.441449253731343 -3.176459701492538
C 2.60904776119403 -3.4296492537313434 -2.8992597014925376
H 1.9825477611940296 -3.869549253731343 -2.119359701492538
H 2.06294776119403 -3.373349253731343 -3.845759701492538
H 3.5215477611940305 -4.019849253731343 -3.0234597014925377
C 3.7281477611940304 -2.060049253731343 -1.156659701492538
H 3.9048477611940298 -1.032549253731343 -0.8295597014925382
H 3.12924776119403 -2.623249253731343 -0.4404597014925382
H 4.68244776119403 -2.5769492537313434 -1.3005597014925383
C 3.1110477611940297 3.755250746268656 2.588740298507462
H 3.40124776119403 4.809350746268656 2.534540298507462
H 2.9823477611940303 3.461750746268656 3.634840298507462
H 3.86514776119403 3.1392507462686563 2.091540298507462
C 1.99744776119403 3.9574507462686572 0.40494029850746194
H 2.67914776119403 3.230350746268657 -0.04295970149253803
H 1.03214776119403 3.981150746268657 -0.10175970149253821
H 2.4399477611940297 4.958250746268657 0.368240298507462
C 0.7418477611940297 4.4992507462686575 2.475440298507462
H -0.18475223880597014 4.424250746268656 1.901240298507462
H 0.57844776119403 4.189650746268656 3.511940298507462
H 1.1210477611940297 5.524350746268658 2.4432402985074617
N 3.00114776119403 -2.025349253731343 -2.490159701492538
N 1.7831477611940298 3.586450746268657 1.862540298507462
C -3.55075223880597 -3.8435492537313434 0.6444402985074619
H -2.62515223880597 -2.2736492537313433 1.7424402985074618
H -4.67195223880597 -1.3478492537313436 1.5102402985074619
H -4.83415223880597 -1.6757492537313432 -0.1945597014925382
H -3.7169522388059697 0.17335074626865676 -0.900559701492538
H -3.9132522388059705 -4.043149253731343 -0.34225970149253815
H -4.35435223880597 -3.9354492537313432 1.3449402985074619
H -2.78115223880597 -4.545049253731343 0.8904402985074619
H -5.24235223880597 1.138950746268657 1.5249402985074618
H -5.92805223880597 0.6501507462686567 -0.006059701492538094
H -4.89895223880597 2.059650746268657 0.08004029850746197
C 1.1016530957756 -2.730720877045865 4.23374670072681
O 1.0689974204329196 -2.8592050851601853 3.0195799437559443
O 0.11966731781324158 -2.5189638959555216 4.954506284040946
O 2.1217536179578946 -2.7925720718688827 4.929604257086138
O -4.9166805632278034 -6.129622024434433 -7.088758534472547
H -3.972459479043051 -6.0515438943490425 -7.2920261085795355
H -5.1827584516777945 -6.9528500896676775 -7.525175828115136
O -7.088745299383748 -3.6584206211111896 2.520915202091823
H -7.893669770917939 -3.775685449162732 1.9943101203394273
H -6.869633329974821 -4.554907592798912 2.8163183143907915
O -0.089112360574507 -4.904061174116105 -2.1847290764984093
H -0.9259901935523003 -4.423903666772189 -2.2744598834248544
H -0.29105555517491677 -5.61027414508936 -1.5527131509999232
O 10.478542947093874 -4.758988213818229 2.2724260977993325
H 10.728108368673333 -5.148757341396642 1.421095090236098
H 10.588909754397527 -3.806159868017675 2.134951534390038
O 0.867446182611155 -2.0724126631319195 7.231969834741309
H 1.231759588191201 -1.3705499620005286 7.7919982698901125
H 0.12740327736890178 -2.4241647687349483 7.749240459177339
O 1.2440920387158378 7.599616183700923 3.2055826838417363
H 1.1666115990042858 7.585885622843247 4.171385774570193
H 2.11916533957499 7.984161653975474 3.0464178519384766
O -5.4031129852280095 -0.8381686404025706 -3.6935152473514035
H -4.8925609348955 -1.52496414061915 -3.2389650282517626
H -6.025803972886839 -1.335609594856685 -4.244668923761395
O -3.582286015288728 -5.70980350031124 -10.694013389547042
H -2.6469693826746217 -5.467953090100045 -10.618790170152447
H -3.605803838196695 -6.323511342745759 -11.443527592507893
O 5.311604908060482 -3.336322261469417 0.9467867860659922
H 5.158478315751235 -3.475978862044589 1.8933678114111792
H 5.148009681032411 -2.3896316560625346 0.8203927845153499
O 1.1225861060414832 -5.3555820253001745 -10.313360255260264
H 1.7095292962627635 -5.009022478894083 -9.624621168851142
H 0.33146104118644093 -5.6343368780120855 -9.828201716071616
O -1.4145868364923233 8.005730398851675 5.649974897841226
H -1.137761811165797 8.481298567152903 4.852372127314704
H -0.6324146507070534 8.031835705471918 6.221365420207632
O 6.909723072882481 1.6405459982917754 3.6927560665274712
H 7.860285844481272 1.561257477158898 3.522136300477389
H 6.8368553205407325 2.4307223907086426 4.248879707308661
O 7.833893954838521 -0.5840063273531654 -0.8862582001127361
H 7.894485704754286 -1.5471313965408813 -0.798587806910104
H 8.270246883296812 -0.3979820824794422 -1.731215622972038
O -2.4654159502893638 1.782875039727879 -4.327812257336481
H -1.73846498016762 1.9470575143366928 -3.7084950857915744
H -3.2530390852989473 1.7611945980500723 -3.7637717446546968
O 4.828146931470478 -8.330464202104741 -3.799043941427203
H 4.21558027841473 -8.49542295988756 -4.531517873178245
H 5.629238469563111 -8.814231265761233 -4.050407661994736
O 5.464745630754385 5.412104193486787 -5.260965837179649
H 5.538370659226979 4.810714920299267 -4.504739909181013
H 6.157080981412216 5.1104915974233975 -5.86814253998156
O 0.12519954871759875 7.043414420545941 -6.750870303654006
H -0.12507761518880955 6.976240219206633 -7.68458135360543
H -0.432796584224324 7.758467387083665 -6.40984022438319
O -5.1862472990065225 -5.016700181690484 10.372629836443856
H -4.319737786684345 -5.140804188862074 9.957025676985438
H -5.192872290104023 -4.081215533465128 10.625189783243897
O -8.987620443487632 2.6303750597555586 -2.4481198143603056
H -8.974770206294908 2.2044299071203337 -1.5778480434458133
H -8.36250090555233 3.3652988372206005 -2.3582613205599667
O -6.530950821705655 -5.132325167173526 8.146972314475926
H -6.5590464234152845 -5.154866148664809 7.178638746836145
H -7.352064508623803 -5.571379263298942 8.415236658232566
C -1.9963981528877097 -6.574512014163288 -15.613781931062348
O -1.1015585159299244 -6.802075594869853 -16.375552958448708
O -2.891237789845495 -6.346948433456726 -14.852010903675993
O 12.798050768731175 -12.55083661400328 7.640606975859427
H 12.910437223601818 -11.588374657994116 7.642510891987048
H 11.846599569290426 -12.67511736553363 7.505489048914801
O 3.393918703886692 10.51777187727081 -7.058557599520159
H 2.7973190672827792 10.155331040625708 -6.3864914789367155
H 2.9138787774161874 11.282827464360354 -7.409575493590057
O 13.975570076726394 7.8227264939158605 1.4939129989866116
H 13.472126910791733 8.007782567705584 2.3009238942830885
H 14.675958626407215 8.492362500671446 1.4962458582680105
O 7.3887930719291575 -13.377387247664306 -7.677685774343146
H 6.50895624562738 -13.087752934253768 -7.3931396788183275
H 7.289321516499252 -13.527180290577729 -8.629856661450651
O 10.274442694474551 -10.511410224532673 -10.479260814875877
H 10.38428272681446 -9.558094313093404 -10.613764707727672
H 11.181524123384145 -10.842308534428115 -10.397581355183364
O 6.963246320075161 16.652675710755013 -1.8403741942969811
H 6.915287255289099 15.761509154706856 -2.217851947795269
H 6.737077234302083 17.233583268675982 -2.582233950646433
O -6.498415150227543 12.947578692795478 9.936684122271679
H -6.329373422467521 13.125199421160303 10.87415045661711
H -5.8751786193559905 13.526569196442106 9.472671010846778
O -11.44448796207983 1.3506193778595814 -10.548701060570028
H -11.681646821246003 0.9085332653764271 -9.719675788597858
H -10.71009762843467 1.9325954601673683 -10.301847618685509
O 4.668982855969829 -21.8574073093573 -6.076234274078941
H 4.207760407492774 -21.101265741541003 -6.469287882815899
H 5.466479570438026 -21.468459332233177 -5.686772586870193
O -13.257119665790048 8.912849535717065 -4.402875893916987
H -13.164809724100778 8.350032753124072 -3.6194963557638666
H -13.308382261285022 9.810466093818986 -4.041463933372819
O -17.721769231564245 7.467470382132396 -0.4353077973910283
H -17.90679811478035 7.46251086379171 -1.3864687051525006
H -17.31007719085135 8.331066871723971 -0.2814484100311465
O -4.914805249534778 -14.186970170355949 17.760142029121102
H -5.409816041592814 -13.630371982798668 18.379924354017533
H -4.543592173866088 -13.556660558369812 17.124632320469473
O 7.677773706720562 -5.5913065347335005 -2.2025833982730245
H 8.035093813169269 -5.7195282183542 -1.3110404109319993
H 6.787099454737154 -5.969916037527463 -2.1544568406577103
O 0.262814360049783 -15.948518295612434 -9.60047486342793
H 0.7590382688539621 -16.155173994341638 -10.406714661139409
H -0.392890615202925 -15.2964041878352 -9.88988827045454
O -7.5470938778598455 13.920020263741014 -9.10439205397342
H -7.685138417038684 13.85127001674422 -10.061044794334721
H -7.487538433661763 12.998839130591891 -8.809705078868536
O -0.015859737384134043 18.161003083117304 3.1072507087528276
H -0.23383676762425498 18.871823025575463 3.728691277585828
H -0.5146830189192917 17.399225713656765 3.4386606022024293
O -4.100711735615176 -10.733390762807087 -6.261459692243226
H -4.322432274479008 -10.181044759698132 -5.496789009925996
H -4.796846031418582 -10.532625870028971 -6.904928762466564
O 10.00713098523702 6.603155067631473 1.6102559052626164
H 9.54425206365047 5.920649614665429 1.1014369123756653
H 9.691022340141728 7.435288562394543 1.2273837128936527
O -1.9924757906267978 -6.832893053697222 3.9169874764262573
H -2.4536286450458533 -6.1002323026096095 4.3523191035530875
H -2.2283752685004234 -6.735502733965914 2.982199529209573
O -0.06681254743606235 1.3110187042728398 20.288772039164822
H 0.5182825873556309 0.6867839562957325 20.743702824626794
H -0.3166688753232849 1.9433375700049247 20.97921147297057