194

C -5.0710522388059704 1.0783507462686561 0.47044029850746183
C -3.8153522388059704 0.1782507462686569 0.19534029850746193
C -4.11845223880597 -1.3219492537313435 0.5608402985074619
C -2.96945223880597 -2.3874492537313436 0.7034402985074619
C -2.52015223880597 0.7359507462686565 0.7384402985074618
C -2.20305223880597 0.7852507462686571 2.097440298507462
C -1.5755522388059702 1.205650746268656 -0.18965970149253808
C -0.9533522388059701 1.2695507462686564 2.508640298507462
H -2.91125223880597 0.4298507462686567 2.840840298507462
C -0.32655223880597006 1.6562507462686575 0.21554029850746192
H -1.7850522388059702 1.178550746268657 -1.2573597014925382
C 0.004447761194029898 1.6956507462686563 1.569740298507462
H -0.7158522388059702 1.2676507462686573 3.5705402985074617
H 0.3943477611940298 1.9193507462686572 -0.5551597014925382
C -1.76045223880597 -2.1592492537313435 -0.1734597014925381
C -0.5287522388059701 -1.936549253731343 0.464840298507462
C -1.8068522388059702 -2.121249253731343 -1.5681597014925381
C 0.6114477611940299 -1.614449253731343 -0.2582597014925381
H -0.4544522388059702 -1.954049253731343 1.5506402985074619
C -0.6479522388059701 -1.8270492537313432 -2.2998597014925384
H -2.74345223880597 -2.290549253731343 -2.092259701492538
C 0.5698477611940298 -1.5506492537313434 -1.6506597014925382
H 1.5072477611940298 -1.351949253731343 0.2991402985074618
H -0.7173522388059701 -1.7640492537313435 -3.3840597014925375
C 1.7791477611940298 -1.082849253731343 -2.4255597014925376
H 1.4739477611940297 -0.9102492537313429 -3.464259701492538
H 2.1252477611940295 -0.1337492537313434 -2.0010597014925384
C 1.3965477611940298 2.0964507462686566 1.997440298507462
H 1.51704776119403 1.8448507462686567 3.057640298507462
H 2.1256477611940294 1.5207507462686571 1.4165402985074618
C 3.94864776119403 -1.4275492537313434 -3.522959701492538
H 4.81734776119403 -2.087049253731343 -3.615159701492538
H 3.4305477611940303 -1.3641492537313429 -4.484459701492538
H 4.26984776119403 -0.441449253731343 -3.176459701492538
C 2.60904776119403 -3.4296492537313434 -2.8992597014925376
H 1.9825477611940296 -3.869549253731343 -2.119359701492538
H 2.06294776119403 -3.373349253731343 -3.845759701492538
H 3.5215477611940305 -4.019849253731343 -3.0234597014925377
C 3.7281477611940304 -2.060049253731343 -1.156659701492538
H 3.9048477611940298 -1.032549253731343 -0.8295597014925382
H 3.12924776119403 -2.623249253731343 -0.4404597014925382
H 4.68244776119403 -2.5769492537313434 -1.3005597014925383
C 3.1110477611940297 3.755250746268656 2.588740298507462
H 3.40124776119403 4.809350746268656 2.534540298507462
H 2.9823477611940303 3.461750746268656 3.634840298507462
H 3.86514776119403 3.1392507462686563 2.091540298507462
C 1.99744776119403 3.9574507462686572 0.40494029850746194
H 2.67914776119403 3.230350746268657 -0.04295970149253803
H 1.03214776119403 3.981150746268657 -0.10175970149253821
H 2.4399477611940297 4.958250746268657 0.368240298507462
C 0.7418477611940297 4.4992507462686575 2.475440298507462
H -0.18475223880597014 4.424250746268656 1.901240298507462
H 0.57844776119403 4.189650746268656 3.511940298507462
H 1.1210477611940297 5.524350746268658 2.4432402985074617
N 3.00114776119403 -2.025349253731343 -2.490159701492538
N 1.7831477611940298 3.586450746268657 1.862540298507462
C -3.55075223880597 -3.8435492537313434 0.6444402985074619
H -2.62515223880597 -2.2736492537313433 1.7424402985074618
H -4.67195223880597 -1.3478492537313436 1.5102402985074619
H -4.83415223880597 -1.6757492537313432 -0.1945597014925382
H -3.7169522388059697 0.17335074626865676 -0.900559701492538
H -3.9132522388059705 -4.043149253731343 -0.34225970149253815
H -4.35435223880597 -3.9354492537313432 1.3449402985074619
H -2.78115223880597 -4.545049253731343 0.8904402985074619
H -5.24235223880597 1.138950746268657 1.5249402985074618
H -5.92805223880597 0.6501507462686567 -0.006059701492538094
H -4.89895223880597 2.059650746268657 0.08004029850746197
C -1.9607154728723293 4.497266961117197 -1.589110409179921
O -1.8681736080987488 3.8229613238791362 -0.5749489775265573
O -2.587730137481719 4.1744671634339765 -2.6046321298144166
O -1.4416650901788532 5.606816388418635 -1.7568457751610007
O -2.578223889236398 -2.941279323471176 -9.91354909546876
H -2.21926087801083 -2.897048077532295 -10.812524351165248
H -3.477231455699637 -3.2811584173259787 -10.036957123174748
O 6.359644925907133 -5.446745825856628 0.4479819284392632
H 7.086180470909197 -5.383863641416295 -0.19010841753736063
H 6.677620007795152 -6.086736525688554 1.102402050170669
O -6.7809609837320215 -0.104356842296639 5.909278235950736
H -5.887590361047392 0.011227788719655019 6.266344729053779
H -7.2132726416346316 0.7457851844182568 6.080529832015081
O 3.5396406982534163 -8.670698402635198 1.3547242355741371
H 3.8719124647299 -8.481454183193529 2.2450890234619507
H 4.275621373025895 -8.426824519823418 0.7735014556147217
O -4.137948326448513 0.7730011719020364 -6.225272496246609
H -4.170260573871301 0.8018338958308393 -5.257237398950371
H -4.78863589249808 1.4359681637021795 -6.501030367343628
O 2.1281537804578754 -1.9581609776258924 8.692621309041584
H 2.502740763067621 -2.7161818551432657 9.16596716421211
H 1.3707603864362148 -2.330527236159307 8.216532493274846
O -0.08309762524931719 3.682022257092548 -6.85110782036483
H -0.451174431086105 4.209138916369067 -6.126101027694478
H -0.8399548153230674 3.5281321100848073 -7.4362974996890685
O -0.3819104528791021 -5.64534218885086 7.172823767067382
H -0.511487271132876 -5.168656422222504 8.006459109987276
H -0.9005931284169261 -5.138370894310062 6.530242773799957
O -7.873723248774205 -1.8918648356255718 -1.0083192923939217
H -7.29956054778949 -2.039155744812616 -0.24176209441793822
H -8.395809912398468 -1.1131130717823257 -0.7635068125716766
O -6.913770363893946 1.91621208733027 -3.2404488487999537
H -6.901366605328185 1.0552105717127895 -3.684847199132
H -7.192618425748148 1.7087500382608207 -2.335924000663619
O -2.6957843348649013 3.346707838516494 2.15561397599084
H -1.8664257260722605 2.989480188214266 1.8041597673361625
H -3.3795084607279486 2.934546219400607 1.606427246598567
O -1.7611167311611635 -4.3060908958425035 -4.44312733772932
H -1.0899360974486432 -4.027605340018624 -5.084165331163972
H -1.4281341844919038 -3.9733768829454865 -3.59614094259914
O 1.464867811908614 -2.6192592430420953 -7.974992672599584
H 2.3300446003622253 -2.846063650904738 -8.347814670602883
H 1.0830222875178555 -2.00924502111508 -8.623867536382674
O 9.010951377432201 0.16747957087048038 0.9779931919692548
H 8.624427269277987 -0.6950291584989827 0.7643459067605152
H 9.639440475803218 -0.027411781443285932 1.6893164365789752
O 1.5932294182319477 -5.1891370348276 2.9453514229440745
H 0.9309962130026108 -4.942979308856952 3.6085413751724236
H 2.192696827146857 -4.428259238422073 2.9195493128382157
O -0.6251151257683896 7.686198414800449 8.412545185089094
H -1.0188656689287203 6.815429773870286 8.252264678995616
H -1.3888148796875681 8.277133558155317 8.493293476166665
O -3.7871124473266757 -9.919857561217345 3.193172418318005
H -3.9461306526009814 -9.806824831157712 4.142332135766342
H -4.46994135191358 -9.374230118085418 2.7748456027037522
O 2.13349671169301 5.749251392397432 5.024965508159144
H 2.370688707772059 6.566474517640822 4.561442393888169
H 2.9218851393043437 5.539470108974439 5.547839723084618
O -0.17928790345241719 -4.215045304360879 0.044725978715421055
H 0.5470638877120657 -4.4746203253523635 -0.5417902110435819
H -0.6059061656352859 -5.0541965442180965 0.27447366492392744
O -6.241417713321819 4.594035990398084 2.131149078956588
H -6.250957695317041 4.626889863909914 1.162749900601505
H -6.589901123989855 5.457900511853418 2.3980935401464025
C -12.27561923706884 2.1397290162916 -16.085109016831225
O -12.194031475752642 1.760800023013845 -17.21761707974156
O -12.357206998385038 2.5186580095693545 -14.952600953920891
O 0.9318434942322282 -5.706806140018983 12.181750676010262
H 0.03972855374227043 -5.657550106605114 11.8066878372393
H 1.0199001283904041 -6.632159129706454 12.455483790479798
O -6.4511135132247714 -1.76672166069865 12.955183795032966
H -7.137320188766937 -1.651121805359253 12.280851214782775
H -6.874285606066299 -2.3223161188966754 13.626899599640662
O -13.356153748836183 -7.3113774985963795 -16.694181848589608
H -14.227142926563413 -7.72744157257018 -16.60911778137925
H -12.733698779468297 -8.0408891992575 -16.555169496592583
O -12.648194329281997 5.404073039328228 -10.536597471557677
H -12.59307072911399 5.92902138935108 -9.723973342323992
H -12.811988867664471 4.502301129276574 -10.22204904009144
O -13.291061021290293 -3.407242874594894 0.24508040552295807
H -13.001366258905357 -2.4842798464431786 0.18865744732550294
H -13.36607120538252 -3.5712300769772582 1.1971537293994636
O -1.3655979110806418 9.39525789438361 0.8166371654040143
H -0.8536021376608625 9.421290713889146 1.638920557677551
H -1.7280468773951365 10.290485787643991 0.7381533438473833
O 1.66058711974103 14.87827006996456 -5.2781829221419985
H 1.709579440581364 14.98594237943382 -4.316427348634761
H 1.9098750731574228 15.74841112876513 -5.624119330128913
O -3.3556622853336204 -2.3938011962510566 -5.385586128076281
H -2.4256690718570857 -2.1463316174773546 -5.272277755176676
H -3.8140981705680073 -1.9093210322322243 -4.682679694685856
O -8.232021463432575 12.291918455275644 8.051960514749428
H -8.918294023807812 12.262922874015999 8.735449056016531
H -7.546893576991114 12.86196775994791 8.43223083144917
O 5.084740277589395 1.4836403784740342 -9.304074323656957
H 5.074513868493565 2.2256223035168134 -9.927232088887253
H 6.017646005871441 1.2247663969405704 -9.263662591158129
O -2.7868431976921886 -10.708865532341992 -3.917727506902299
H -2.7909714505318517 -10.791450694973854 -4.883196307714401
H -1.9069076965649947 -11.022134956264733 -3.659778430162047
O 5.240915977237885 -4.714815144718021 -5.644806110102278
H 5.723601562986922 -4.669002621719658 -4.805828640233966
H 4.356096900609287 -5.01636714084616 -5.389612968412994
O -0.021108658695219606 18.846308507737298 -2.219698524355941
H -0.9290721138107783 18.507887424034784 -2.2260931455516246
H 0.27217647025601677 18.712355535646278 -1.305913878663075
O -20.70909435512525 -1.0170852150144132 3.184591047407774
H -20.85169095858138 -0.6352444497239809 2.305482865472699
H -21.591025906841374 -1.3110957571556003 3.4579342081003834
O 8.972712359320079 -11.3884236517901 -4.733967799590912
H 9.25046344796092 -11.028245686043793 -3.878343160716083
H 8.023012610967172 -11.19944696320371 -4.770301577943121
O -7.3217887479416905 14.211017929709465 -1.0632922530055882
H -6.637170208763369 13.536431109189017 -0.9400143786993844
H -7.562322252994723 14.468097299225182 -0.1605100118110121
O 16.840912883157003 -8.092297145181407 6.802434735150581
H 16.895629374965868 -8.195455849198874 7.764376388375749
H 17.45400236778281 -8.760083951974424 6.460171665547031
O 15.062293447610259 -10.573707986045187 5.421050360145375
H 14.830198792160983 -10.150047557919304 4.58104365216497
H 15.885507912352487 -10.135683260156467 5.684516162194292
O 13.695113628336038 7.562202096507961 7.5062627391074495
H 13.117405216436655 7.647995495258758 8.279476707198743
H 14.585336410339044 7.504031670718376 7.8845239507936125
O 14.041102273227152 3.802396738108927 0.13182367808939333
H 13.62202419644247 4.367422719220155 0.7982218797134277
H 13.383181785968105 3.7497604670036955 -0.5776352704826535