194

C -5.0710522388059704 1.0783507462686561 0.47044029850746183
C -3.8153522388059704 0.1782507462686569 0.19534029850746193
C -4.11845223880597 -1.3219492537313435 0.5608402985074619
C -2.96945223880597 -2.3874492537313436 0.7034402985074619
C -2.52015223880597 0.7359507462686565 0.7384402985074618
C -2.20305223880597 0.7852507462686571 2.097440298507462
C -1.5755522388059702 1.205650746268656 -0.18965970149253808
C -0.9533522388059701 1.2695507462686564 2.508640298507462
H -2.91125223880597 0.4298507462686567 2.840840298507462
C -0.32655223880597006 1.6562507462686575 0.21554029850746192
H -1.7850522388059702 1.178550746268657 -1.2573597014925382
C 0.004447761194029898 1.6956507462686563 1.569740298507462
H -0.7158522388059702 1.2676507462686573 3.5705402985074617
H 0.3943477611940298 1.9193507462686572 -0.5551597014925382
C -1.76045223880597 -2.1592492537313435 -0.1734597014925381
C -0.5287522388059701 -1.936549253731343 0.464840298507462
C -1.8068522388059702 -2.121249253731343 -1.5681597014925381
C 0.6114477611940299 -1.614449253731343 -0.2582597014925381
H -0.4544522388059702 -1.954049253731343 1.5506402985074619
C -0.6479522388059701 -1.8270492537313432 -2.2998597014925384
H -2.74345223880597 -2.290549253731343 -2.092259701492538
C 0.5698477611940298 -1.5506492537313434 -1.6506597014925382
H 1.5072477611940298 -1.351949253731343 0.2991402985074618
H -0.7173522388059701 -1.7640492537313435 -3.3840597014925375
C 1.7791477611940298 -1.082849253731343 -2.4255597014925376
H 1.4739477611940297 -0.9102492537313429 -3.464259701492538
H 2.1252477611940295 -0.1337492537313434 -2.0010597014925384
C 1.3965477611940298 2.0964507462686566 1.997440298507462
H 1.51704776119403 1.8448507462686567 3.057640298507462
H 2.1256477611940294 1.5207507462686571 1.4165402985074618
C 3.94864776119403 -1.4275492537313434 -3.522959701492538
H 4.81734776119403 -2.087049253731343 -3.615159701492538
H 3.4305477611940303 -1.3641492537313429 -4.484459701492538
H 4.26984776119403 -0.441449253731343 -3.176459701492538
C 2.60904776119403 -3.4296492537313434 -2.8992597014925376
H 1.9825477611940296 -3.869549253731343 -2.119359701492538
H 2.06294776119403 -3.373349253731343 -3.845759701492538
H 3.5215477611940305 -4.019849253731343 -3.0234597014925377
C 3.7281477611940304 -2.060049253731343 -1.156659701492538
H 3.9048477611940298 -1.032549253731343 -0.8295597014925382
H 3.12924776119403 -2.623249253731343 -0.4404597014925382
H 4.68244776119403 -2.5769492537313434 -1.3005597014925383
C 3.1110477611940297 3.755250746268656 2.588740298507462
H 3.40124776119403 4.809350746268656 2.534540298507462
H 2.9823477611940303 3.461750746268656 3.634840298507462
H 3.86514776119403 3.1392507462686563 2.091540298507462
C 1.99744776119403 3.9574507462686572 0.40494029850746194
H 2.67914776119403 3.230350746268657 -0.04295970149253803
H 1.03214776119403 3.981150746268657 -0.10175970149253821
H 2.4399477611940297 4.958250746268657 0.368240298507462
C 0.7418477611940297 4.4992507462686575 2.475440298507462
H -0.18475223880597014 4.424250746268656 1.901240298507462
H 0.57844776119403 4.189650746268656 3.511940298507462
H 1.1210477611940297 5.524350746268658 2.4432402985074617
N 3.00114776119403 -2.025349253731343 -2.490159701492538
N 1.7831477611940298 3.586450746268657 1.862540298507462
C -3.55075223880597 -3.8435492537313434 0.6444402985074619
H -2.62515223880597 -2.2736492537313433 1.7424402985074618
H -4.67195223880597 -1.3478492537313436 1.5102402985074619
H -4.83415223880597 -1.6757492537313432 -0.1945597014925382
H -3.7169522388059697 0.17335074626865676 -0.900559701492538
H -3.9132522388059705 -4.043149253731343 -0.34225970149253815
H -4.35435223880597 -3.9354492537313432 1.3449402985074619
H -2.78115223880597 -4.545049253731343 0.8904402985074619
H -5.24235223880597 1.138950746268657 1.5249402985074618
H -5.92805223880597 0.6501507462686567 -0.006059701492538094
H -4.89895223880597 2.059650746268657 0.08004029850746197
C -2.5780689245279866 3.007053732461233 1.8808603478608732
O -2.2640340093840923 3.5270710407462755 2.9404544068072913
O -3.6598078431309182 2.45396920560557 1.6515791182920148
O -1.8627145919776098 2.9534166021968566 0.8738650044960653
O 9.130209756685726 -7.486203305338926 -0.7345620146484646
H 9.517016983569235 -7.8662560952272855 -1.537623284433508
H 9.850583304297404 -7.5234344636706005 -0.08753980710791587
O 3.6324223761286527 -1.8249326535593053 2.7288923225399184
H 4.225062836665372 -2.2151992417797355 3.388768546959022
H 4.09727832995329 -1.9577929742463653 1.88911912596794
O -4.741467777882386 -8.86384536372758 -1.1357993495945085
H -4.066586496125325 -8.385448606389126 -1.6404171802366685
H -5.500130624450243 -8.902248085052143 -1.7373954437743349
O -0.08156159854311396 9.513466036553664 0.5046548262203421
H -0.23459686229544108 10.060773142137876 1.2895130918487852
H 0.8821109088241328 9.418047589672277 0.4701213230782293
O -9.632401240394204 -2.598055960750079 5.2273010613037805
H -8.988163853214825 -3.169078394067733 4.782487699871964
H -9.278444725088693 -2.500036434928707 6.123999952866903
O -2.5341068910585705 7.86369586132127 -2.3972444907933954
H -2.1763882862262047 8.316488769523502 -3.1756938076654406
H -3.083858918442645 7.157712184528965 -2.76916074586961
O -0.09358937096599185 -9.381571845517888 2.4915622047902812
H 0.33924422316047975 -8.952942385762205 3.2451530904338854
H -1.0379000538633774 -9.327033157734567 2.701954243614824
O -1.6399074041809323 5.891052851757071 8.40626501407305
H -0.7355825753675589 6.211556866465171 8.27046686442566
H -2.0432723993883597 6.562989187421612 8.976142356801308
O 4.326942150748855 0.8558921358408171 -5.706730391317766
H 4.605391664575476 0.8315517987796577 -4.778915338011631
H 4.343838666800293 -0.07343856312464725 -5.9806298327295435
O -8.171401315078523 -7.784751958563789 2.8685726371980502
H -8.631749027191537 -8.007196859867717 3.691716371145044
H -8.84465861983697 -7.909254422870234 2.1828717678162093
O 5.619584342240266 2.9505103451995 3.2658391479010733
H 5.799319240223479 2.463330831593737 2.447720058238806
H 5.8052601453667325 2.307625498491253 3.966685432264666
O 3.5609394583012444 3.0828111125185567 -3.3348918976217394
H 2.7098498025769593 2.851749361444625 -3.7364192590926195
H 3.557899038374095 2.607855039806592 -2.4902798984524797
O 6.312396873469453 -3.2505899125650703 6.712833163584587
H 6.217592134132957 -3.1976573972770566 5.749932562730779
H 5.427306962679312 -3.495453130689768 7.022057675108357
O 1.4279590778334772 4.4908967387435705 -6.687692489737132
H 1.3715048711612092 5.232967678825307 -7.308265611403881
H 0.8795785411718899 4.769651125200714 -5.939002484900919
O 3.014029682045244 -8.199468538385972 0.64136748208803
H 2.789844550907338 -8.684473603144559 1.4497476346370646
H 3.9800093134668924 -8.128983190783071 0.670983554612812
O 9.137395794130857 -3.52660766035301 4.999761460441584
H 8.897274106233574 -3.262406984981186 4.098924663327682
H 10.038629390040104 -3.871175684040879 4.910247065195202
O -1.0630279517066368 -1.0701911296388964 7.054543264443872
H -0.9907430660582164 -1.420820731000466 6.154098299520516
H -0.1479805923040376 -1.0521644272025057 7.372859635919797
O 5.414735194652126 7.436286449797986 -0.1946743220292002
H 4.924489030210131 7.883024235381118 -0.9011100275836363
H 6.156415585415501 7.015190655964304 -0.6546204870014352
O 6.281997460481371 -6.707118122538001 5.239287408303316
H 6.143711556047149 -6.581517346536851 4.288462077023843
H 6.499119428983922 -7.647853387474857 5.321974507646338
O 3.5840799443961844 -4.325619217472871 2.3795701616575364
H 3.2772636727803848 -5.098008809497173 2.8778125228677354
H 2.766281584371991 -3.885487603617295 2.1030707057328892
C 1.4055334753149422 14.28593168934007 -12.162920349047686
O 1.310041469849108 14.272876816796987 -10.969802959812663
O 1.5010254807807772 14.298986561883149 -13.35603773828271
O 4.2636632282371405 4.396778126587162 -13.812149825367069
H 4.744923222425738 3.9003923989793536 -14.491088249910018
H 3.425638125415799 3.9186116458865614 -13.722524560649584
O 0.27400555783299385 10.034126963723004 -10.601988579828223
H 0.19474631105077034 9.309260892117885 -11.240153532591435
H 0.11392474049704315 10.830135140630258 -11.130861965921572
O 7.228632389472967 0.21967826438431626 -12.861570927430696
H 7.023571410345006 0.9779560470039284 -13.428961583085659
H 6.478530966581398 0.17555126659779963 -12.249719141666864
O -2.391002291605405 15.931091238428515 -7.718055334368994
H -1.5415019672465213 15.536880575021618 -7.469229072349796
H -2.1438628595817892 16.717086072351727 -8.228051576007175
O -4.352814616149002 12.077824569445225 1.3862864316063988
H -4.468037379106472 11.158918153703558 1.6714216116618459
H -4.13077727735993 12.00499594420597 0.4458836690470658
O -11.796373223327004 -6.420486583892346 16.267752834529514
H -11.43754658476866 -6.603509214033433 17.149066352647306
H -11.590715967223108 -7.2201545392705215 15.760605717360239
O -13.357923126977905 5.8434834429349625 -5.241577606268766
H -12.89673652289876 5.153727169520489 -4.74106731026745
H -13.595592511882634 6.500554455590629 -4.570211169733053
O -7.524284734110246 -6.2246788571506055 -8.693710208076997
H -7.36818752802407 -7.077005248633297 -9.127462143558772
H -8.472219492020479 -6.234334272230344 -8.492990473109785
O -6.890306106000723 -1.8556519864245984 -14.023508439552444
H -6.730763859282877 -1.5487397682330202 -14.928670590074077
H -6.003209985909358 -2.0355030515343495 -13.677566229931049
O 16.27461312163802 -13.2410150691458 -12.147182354890893
H 16.412615669214258 -12.433655935837077 -11.629404522586864
H 16.132457126422395 -12.918711333919449 -13.049886026969055
O -2.6027411166791463 -5.796628248371385 -8.335355088199611
H -2.173073075400807 -5.339894827807175 -7.596607963843953
H -2.4962037601082816 -5.187173239067059 -9.081127390976238
O -5.492068327442902 -3.9137899764964184 -16.88104276962433
H -5.891224317935816 -4.6625390249394325 -16.41305055322612
H -4.836948229914636 -4.3249611959254946 -17.46475316907577
O -9.313361131599796 -5.446465340292386 10.499557667478713
H -9.961603810575479 -4.8884944609377685 10.954988544612297
H -8.695938651243006 -5.706935331007886 11.199491099304009
O 5.086000736096827 -8.88788898823123 13.862437399748465
H 5.114466287430098 -8.777377323535909 12.900177434222742
H 4.222017961349331 -8.528337619093469 14.113870337508768
O 2.5065203176491524 17.535563827227026 3.6368322262334596
H 2.647593112014893 17.33684480455336 4.574689664023162
H 3.166856566367425 16.992611857747562 3.1806292650779544
O 8.422258891773232 -6.6337913657099215 12.050885116572296
H 7.93552119548481 -5.91940804721808 11.61303783021274
H 8.183106441059318 -7.4245790581505045 11.544502973223988
O -0.5097742933288814 13.872669087226027 1.1541060246624593
H -0.013952937167951873 14.106974799201422 0.3552134330017014
H -0.7589019137292334 12.947097776701177 1.0119261309117293
O 8.960588075383416 19.954126015600053 6.282091035647347
H 8.540647259684292 19.773853876773593 5.427621010325868
H 8.917862198764917 19.10533665969171 6.747594067929503
O 10.333681964628951 -0.5885512890884774 -3.3003781476257754
H 9.551271661929299 -0.9496395920615797 -3.743567399058442
H 10.066811756449399 -0.5226483900937309 -2.3711854635229095
O 0.9153425349972035 12.014113564644045 -4.60930668496958
H 1.850907035174121 12.041551836614099 -4.358441055318938
H 0.9308142343721759 12.066188644565605 -5.576783174022216