194

C -5.0710522388059704 1.0783507462686561 0.47044029850746183
C -3.8153522388059704 0.1782507462686569 0.19534029850746193
C -4.11845223880597 -1.3219492537313435 0.5608402985074619
C -2.96945223880597 -2.3874492537313436 0.7034402985074619
C -2.52015223880597 0.7359507462686565 0.7384402985074618
C -2.20305223880597 0.7852507462686571 2.097440298507462
C -1.5755522388059702 1.205650746268656 -0.18965970149253808
C -0.9533522388059701 1.2695507462686564 2.508640298507462
H -2.91125223880597 0.4298507462686567 2.840840298507462
C -0.32655223880597006 1.6562507462686575 0.21554029850746192
H -1.7850522388059702 1.178550746268657 -1.2573597014925382
C 0.004447761194029898 1.6956507462686563 1.569740298507462
H -0.7158522388059702 1.2676507462686573 3.5705402985074617
H 0.3943477611940298 1.9193507462686572 -0.5551597014925382
C -1.76045223880597 -2.1592492537313435 -0.1734597014925381
C -0.5287522388059701 -1.936549253731343 0.464840298507462
C -1.8068522388059702 -2.121249253731343 -1.5681597014925381
C 0.6114477611940299 -1.614449253731343 -0.2582597014925381
H -0.4544522388059702 -1.954049253731343 1.5506402985074619
C -0.6479522388059701 -1.8270492537313432 -2.2998597014925384
H -2.74345223880597 -2.290549253731343 -2.092259701492538
C 0.5698477611940298 -1.5506492537313434 -1.6506597014925382
H 1.5072477611940298 -1.351949253731343 0.2991402985074618
H -0.7173522388059701 -1.7640492537313435 -3.3840597014925375
C 1.7791477611940298 -1.082849253731343 -2.4255597014925376
H 1.4739477611940297 -0.9102492537313429 -3.464259701492538
H 2.1252477611940295 -0.1337492537313434 -2.0010597014925384
C 1.3965477611940298 2.0964507462686566 1.997440298507462
H 1.51704776119403 1.8448507462686567 3.057640298507462
H 2.1256477611940294 1.5207507462686571 1.4165402985074618
C 3.94864776119403 -1.4275492537313434 -3.522959701492538
H 4.81734776119403 -2.087049253731343 -3.615159701492538
H 3.4305477611940303 -1.3641492537313429 -4.484459701492538
H 4.26984776119403 -0.441449253731343 -3.176459701492538
C 2.60904776119403 -3.4296492537313434 -2.8992597014925376
H 1.9825477611940296 -3.869549253731343 -2.119359701492538
H 2.06294776119403 -3.373349253731343 -3.845759701492538
H 3.5215477611940305 -4.019849253731343 -3.0234597014925377
C 3.7281477611940304 -2.060049253731343 -1.156659701492538
H 3.9048477611940298 -1.032549253731343 -0.8295597014925382
H 3.12924776119403 -2.623249253731343 -0.4404597014925382
H 4.68244776119403 -2.5769492537313434 -1.3005597014925383
C 3.1110477611940297 3.755250746268656 2.588740298507462
H 3.40124776119403 4.809350746268656 2.534540298507462
H 2.9823477611940303 3.461750746268656 3.634840298507462
H 3.86514776119403 3.1392507462686563 2.091540298507462
C 1.99744776119403 3.9574507462686572 0.40494029850746194
H 2.67914776119403 3.230350746268657 -0.04295970149253803
H 1.03214776119403 3.981150746268657 -0.10175970149253821
H 2.4399477611940297 4.958250746268657 0.368240298507462
C 0.7418477611940297 4.4992507462686575 2.475440298507462
H -0.18475223880597014 4.424250746268656 1.901240298507462
H 0.57844776119403 4.189650746268656 3.511940298507462
H 1.1210477611940297 5.524350746268658 2.4432402985074617
N 3.00114776119403 -2.025349253731343 -2.490159701492538
N 1.7831477611940298 3.586450746268657 1.862540298507462
C -3.55075223880597 -3.8435492537313434 0.6444402985074619
H -2.62515223880597 -2.2736492537313433 1.7424402985074618
H -4.67195223880597 -1.3478492537313436 1.5102402985074619
H -4.83415223880597 -1.6757492537313432 -0.1945597014925382
H -3.7169522388059697 0.17335074626865676 -0.900559701492538
H -3.9132522388059705 -4.043149253731343 -0.34225970149253815
H -4.35435223880597 -3.9354492537313432 1.3449402985074619
H -2.78115223880597 -4.545049253731343 0.8904402985074619
H -5.24235223880597 1.138950746268657 1.5249402985074618
H -5.92805223880597 0.6501507462686567 -0.006059701492538094
H -4.89895223880597 2.059650746268657 0.08004029850746197
C -2.410030032693234 0.9267855166622972 -3.9343183685745236
O -2.0838921742686427 2.036795137067093 -4.325838787596344
O -1.703621180451189 0.17597191621440944 -3.251751935942097
O -3.4969696613350214 0.38250758335575286 -4.160088515856247
O 4.923469986448653 3.968589567056401 -0.7632856329283535
H 4.631169303297387 4.106236151116073 -1.676839728439948
H 5.594562903212745 3.27323162738705 -0.8345146797270973
O 1.3215332070910395 -9.235400271932713 1.9011636655090909
H 1.28582642493858 -9.37951186394948 2.8587252727463017
H 1.456627657350141 -10.122661144380116 1.5358150949178446
O 5.829979979333132 -1.5364464310138959 0.9589563538089911
H 5.930475896290525 -0.7962927658620327 1.576241117542195
H 6.540600727177777 -2.1465695809456546 1.2074112570611994
O 1.0847520015678702 0.6430706272367379 8.009345671159679
H 0.675249980924018 0.8267260676499562 8.868150731225832
H 0.9225650576403124 -0.3020480097048559 7.870032708284356
O 2.6167108326477786 -5.339296569152497 3.843315588774611
H 2.5491714498642133 -5.333080674349398 4.809942275414811
H 1.6978017186474401 -5.26864511346122 3.5440224944409526
O 2.7820806009484196 -8.737749567105247 0.16349775438710035
H 3.5900199839155986 -8.470538293758837 -0.29996685671843437
H 2.2094023980540944 -9.076670153016096 -0.5408703714360179
O -11.48230612775245 4.494267372065271 0.462008218122286
H -12.33609416778807 4.065452619733817 0.6236598428436189
H -11.668091769341505 5.437847504445088 0.5807607905467549
O 7.528047998126729 -0.3556843099999729 7.8102915113861835
H 7.489370761513705 -0.23159898878022078 6.850044532049216
H 8.02620712207369 -1.179561266578347 7.919955507061855
O -1.7388290069906067 -7.082184808020682 2.289000548885963
H -1.2837975274460574 -7.583799533237446 2.982034730560438
H -1.145372958088845 -6.337042711648183 2.1114192476870253
O -7.7312100261462415 5.194575653675374 -0.3566699592573741
H -8.499671532998235 4.662903165353187 -0.10023549482629379
H -8.071564305008412 6.101518130910829 -0.3806752117289607
O 4.4146207431055915 -3.9568954129221146 6.694361846786856
H 4.267343614594691 -4.582708448020804 7.419368639457209
H 5.034063184204524 -4.418204469496761 6.109172167462619
O 1.8049477589090444 7.708169757612913 -0.12630937709463907
H 1.89481463267242 7.7606728822353395 0.8370881129399159
H 1.091270377895319 7.06652896792312 -0.2601885656776614
O -3.547348491942124 -1.7402340080403296 4.719618885456072
H -3.4193131995432458 -1.6625748143559993 3.762256169221187
H -3.7684067820824794 -0.8394209269892654 5.000031027966895
O -6.819570090817682 -0.4548507372701045 5.353673449125767
H -6.292251700259963 -0.4561892398122045 4.540715344245472
H -7.2822498712390225 0.3962554681365784 5.331143642036124
O 5.786659859689376 -10.51135745732012 0.34997650779951694
H 5.556561546902867 -9.886863299993665 -0.35431687625142194
H 6.422945011361845 -10.024949762328482 0.8954219260716525
O -7.195062941190272 4.062907374096968 -4.779552045795018
H -7.454042263702879 4.145229770058258 -3.8494337250776454
H -6.547652130499232 4.772726460421849 -4.905956362134615
O -4.82240009522673 6.064752948237912 6.986596249131229
H -4.718513174902322 6.057707535667632 7.949988810264657
H -4.142278312699425 5.449720608132421 6.673336730750312
O -2.3573523213320606 8.329728415983308 0.2447026066779875
H -2.5947170267018924 8.461490330184521 -0.6854931531009566
H -1.5317369086280035 7.823923418237093 0.2062001540228784
O -1.0272436094789699 4.110023850221769 -6.024756647979286
H -1.4323833337115353 3.781615069794178 -5.208070151404975
H -1.6173638730531974 4.824558721476162 -6.307881949887386
O -5.174222270628515 -5.284808478761155 -6.697034272989092
H -4.782850803042655 -5.1470629474533105 -7.57271794867593
H -5.741634591766006 -6.0615759180612105 -6.813814182924825
C 12.837403710195467 4.744606329930258 4.657228441406474
O 11.71590511680882 4.372945297089064 4.465063827080139
O 13.958902303582114 5.116267362771452 4.8493930557328095
O 10.72349834128125 -1.2928316777919209 9.419132004989306
H 10.856772195175767 -1.3860162450695332 8.463871792696661
H 11.615273818055098 -1.1400922188172 9.766074508866945
O 0.02658391153812012 11.12053774983796 -6.211033054174967
H -0.013969530254787976 11.076557937473513 -5.243878179626358
H -0.3511471639548924 10.27619715497056 -6.4997719306115505
O -16.042341248561222 -4.123920513385725 -2.539057242488245
H -16.380525199493828 -3.630565325833388 -3.3014217426761876
H -15.400593806020714 -4.739234012774082 -2.9244290911787942
O -13.274782439807876 0.9928170184522473 -5.619561402839597
H -13.302646287773753 0.9435675465560402 -6.586911108165691
H -13.599178373120901 0.12631095126925374 -5.331643952369794
O 6.191774260127121 5.0140576026671155 9.036073779694059
H 6.331113828096273 5.0446719341468595 8.077629934491734
H 7.088488416264816 4.98467730882125 9.402137250714851
O -6.072256329563544 5.826094281739806 10.780580378857096
H -6.947067136462003 6.2389220862349735 10.723601322447145
H -5.8494472021623185 5.878809181854248 11.722142472588905
O 17.000207199260466 -19.64501129936402 -6.420198676576693
H 16.49500430680511 -19.58941359494138 -5.595185773878997
H 16.355441931472726 -19.96630162078487 -7.068282176687508
O 0.755643058302875 -5.395870811570189 -14.889826501225416
H 0.5451562526492877 -5.579778093656251 -13.962011447919279
H 0.07385305344479276 -4.7641244783240575 -15.16372594263719
O 8.072257621017874 12.74768800878509 -2.0845748120996213
H 8.010685477979854 12.888563351185113 -3.041303805077979
H 8.174392087110824 13.640715767257737 -1.722591500698077
O 1.4331986271633421 -4.89791508095616 11.561003173232146
H 1.0132491131716836 -5.458678217574799 10.891559772183335
H 1.6823725927179125 -4.098295588565548 11.07368095274678
O 3.1491425619941444 14.165479446968115 4.189738016281202
H 3.039355372462416 13.410808762410461 3.5919200776209412
H 3.5584836512313545 14.846152757311668 3.634683368928311
O -17.920437727313505 8.598463440147889 7.552465134856968
H -17.805560245786726 7.830051879745929 6.97340193020769
H -18.881189417413268 8.673623811149104 7.653801470400599
O -2.450215725143111 -0.24593680285742892 -12.649296797552534
H -2.1862054121168555 0.6625229417483451 -12.858979424268703
H -3.4106589494665265 -0.1897983668983021 -12.5337146485878
O 15.037113122327252 0.1383027241911352 -1.115475736831284
H 15.572286413278153 0.20071185094974187 -1.920871295826994
H 14.165406697642789 0.46204500850867936 -1.3880207547800403
O 7.874361061187726 5.051916224535276 12.637491516184646
H 8.461144696961366 4.643939104170354 13.291866783861392
H 8.301415710601805 5.8979368550638585 12.435413898834682
O 7.637867620765176 2.099695431550934 -10.221770009104858
H 7.261394741842607 1.643164539334665 -9.454427143895327
H 7.908799251154796 1.3806917718082639 -10.812186585117988
O 10.188686157546321 -1.4720969816805258 -7.464339868748976
H 10.689263795425571 -1.890421822549924 -6.747824891329225
H 10.795751342218438 -1.4964673541283977 -8.219217269924664
O 14.387778828032397 -8.075623069578974 -2.9646771466189006
H 14.093387021869782 -8.22151505302648 -2.0530761645384352
H 13.909138297305528 -7.2795659175768535 -3.240644893632523
O 8.692369534568831 -9.528344134004804 -7.716364953036737
H 8.78056527703267 -9.62030482272544 -8.676954407299732
H 9.271737343766633 -10.218975899618044 -7.360945974518038
O -8.318248190265242 12.930791514591592 -5.915519926540087
H -8.605220849272385 13.124519423010065 -6.820552272582026
H -7.354624900435219 13.026750733082832 -5.949928181126948