194

C -5.0710522388059704 1.0783507462686561 0.47044029850746183
C -3.8153522388059704 0.1782507462686569 0.19534029850746193
C -4.11845223880597 -1.3219492537313435 0.5608402985074619
C -2.96945223880597 -2.3874492537313436 0.7034402985074619
C -2.52015223880597 0.7359507462686565 0.7384402985074618
C -2.20305223880597 0.7852507462686571 2.097440298507462
C -1.5755522388059702 1.205650746268656 -0.18965970149253808
C -0.9533522388059701 1.2695507462686564 2.508640298507462
H -2.91125223880597 0.4298507462686567 2.840840298507462
C -0.32655223880597006 1.6562507462686575 0.21554029850746192
H -1.7850522388059702 1.178550746268657 -1.2573597014925382
C 0.004447761194029898 1.6956507462686563 1.569740298507462
H -0.7158522388059702 1.2676507462686573 3.5705402985074617
H 0.3943477611940298 1.9193507462686572 -0.5551597014925382
C -1.76045223880597 -2.1592492537313435 -0.1734597014925381
C -0.5287522388059701 -1.936549253731343 0.464840298507462
C -1.8068522388059702 -2.121249253731343 -1.5681597014925381
C 0.6114477611940299 -1.614449253731343 -0.2582597014925381
H -0.4544522388059702 -1.954049253731343 1.5506402985074619
C -0.6479522388059701 -1.8270492537313432 -2.2998597014925384
H -2.74345223880597 -2.290549253731343 -2.092259701492538
C 0.5698477611940298 -1.5506492537313434 -1.6506597014925382
H 1.5072477611940298 -1.351949253731343 0.2991402985074618
H -0.7173522388059701 -1.7640492537313435 -3.3840597014925375
C 1.7791477611940298 -1.082849253731343 -2.4255597014925376
H 1.4739477611940297 -0.9102492537313429 -3.464259701492538
H 2.1252477611940295 -0.1337492537313434 -2.0010597014925384
C 1.3965477611940298 2.0964507462686566 1.997440298507462
H 1.51704776119403 1.8448507462686567 3.057640298507462
H 2.1256477611940294 1.5207507462686571 1.4165402985074618
C 3.94864776119403 -1.4275492537313434 -3.522959701492538
H 4.81734776119403 -2.087049253731343 -3.615159701492538
H 3.4305477611940303 -1.3641492537313429 -4.484459701492538
H 4.26984776119403 -0.441449253731343 -3.176459701492538
C 2.60904776119403 -3.4296492537313434 -2.8992597014925376
H 1.9825477611940296 -3.869549253731343 -2.119359701492538
H 2.06294776119403 -3.373349253731343 -3.845759701492538
H 3.5215477611940305 -4.019849253731343 -3.0234597014925377
C 3.7281477611940304 -2.060049253731343 -1.156659701492538
H 3.9048477611940298 -1.032549253731343 -0.8295597014925382
H 3.12924776119403 -2.623249253731343 -0.4404597014925382
H 4.68244776119403 -2.5769492537313434 -1.3005597014925383
C 3.1110477611940297 3.755250746268656 2.588740298507462
H 3.40124776119403 4.809350746268656 2.534540298507462
H 2.9823477611940303 3.461750746268656 3.634840298507462
H 3.86514776119403 3.1392507462686563 2.091540298507462
C 1.99744776119403 3.9574507462686572 0.40494029850746194
H 2.67914776119403 3.230350746268657 -0.04295970149253803
H 1.03214776119403 3.981150746268657 -0.10175970149253821
H 2.4399477611940297 4.958250746268657 0.368240298507462
C 0.7418477611940297 4.4992507462686575 2.475440298507462
H -0.18475223880597014 4.424250746268656 1.901240298507462
H 0.57844776119403 4.189650746268656 3.511940298507462
H 1.1210477611940297 5.524350746268658 2.4432402985074617
N 3.00114776119403 -2.025349253731343 -2.490159701492538
N 1.7831477611940298 3.586450746268657 1.862540298507462
C -3.55075223880597 -3.8435492537313434 0.6444402985074619
H -2.62515223880597 -2.2736492537313433 1.7424402985074618
H -4.67195223880597 -1.3478492537313436 1.5102402985074619
H -4.83415223880597 -1.6757492537313432 -0.1945597014925382
H -3.7169522388059697 0.17335074626865676 -0.900559701492538
H -3.9132522388059705 -4.043149253731343 -0.34225970149253815
H -4.35435223880597 -3.9354492537313432 1.3449402985074619
H -2.78115223880597 -4.545049253731343 0.8904402985074619
H -5.24235223880597 1.138950746268657 1.5249402985074618
H -5.92805223880597 0.6501507462686567 -0.006059701492538094
H -4.89895223880597 2.059650746268657 0.08004029850746197
C -0.8074357573361373 1.915465564776174 -4.182604014918573
O -0.3704439963571122 2.7210730194533035 -3.375256302712062
O -1.746044828194321 2.123449195282933 -4.960027506745238
O -0.3786729984445856 0.7675377161906866 -4.347141352412527
O 9.149713058846029 -0.49921477323700003 1.0253163906532259
H 8.43401343093338 -0.9732004076940037 0.5757843919767249
H 9.801661233370456 -1.1892990725351753 1.219504912189413
O -2.112386446586737 -3.2308250436150128 -6.441220732216668
H -1.581592049593058 -3.8638302683587527 -5.9347337625252
H -1.5242640022664231 -2.468880683700888 -6.553089973662893
O 6.210953628667608 0.9390562774404247 -5.330280775623819
H 5.818768946574286 0.12235629851637064 -4.986537155382205
H 6.990422188466363 1.0776264253679395 -4.77154199704424
O 2.5969155925142826 1.6067594599300672 -8.370465832910728
H 2.866661438789248 1.259313333602766 -9.233880984861141
H 1.8957990695407383 1.0024903213720804 -8.083662113095457
O 3.2888856750406887 -8.638926696070369 0.5658574965595342
H 2.794234651919603 -9.2848821144449 1.0921932446309044
H 2.7159701783654313 -7.8575028047723166 0.5555385781107045
O 6.198487962109118 -2.918424417089275 -6.0431396962701935
H 6.059228489218384 -2.8056339536723227 -5.0908516791911245
H 6.796758798146577 -2.193786837700765 -6.279644092814952
O -7.685932554899871 2.3916683052509002 -0.6157177079092819
H -8.455861184500352 2.0417229052363877 -1.088703415124849
H -6.9397308589431415 2.185926977109334 -1.1986546505933462
O -4.2873386468076005 -2.055925955432272 4.793758505600205
H -3.9085352157526367 -1.479340674415557 5.474217711751362
H -3.5891858027439856 -2.1183529983314893 4.124693923559918
O -2.281725293632549 -5.845615232526024 7.993106846170745
H -1.556601093494587 -6.324146067159367 8.42225774221944
H -2.518154789083326 -6.406254505524052 7.238953915026715
O -1.0148442412486043 4.478882841948926 -1.3449774982298024
H -0.8127444115691704 5.294775221906014 -0.8628544433242054
H -0.6804925601451091 4.64632537294259 -2.2389203915164493
O 2.720420531025794 -3.0681143947689233 -7.075610999173817
H 2.1822094615464582 -3.094413616205804 -7.880970889248885
H 2.214587417807808 -2.500901470520765 -6.474475153929123
O 3.761751710771464 -5.264772017259677 0.4122108959806869
H 4.102208373782821 -5.280984801993699 -0.4948689037736349
H 4.502671145281572 -5.588704773890809 0.9461284036975408
O -5.065417536928063 3.1826117849248545 4.051840596529373
H -4.765121105105356 2.4077524126905225 4.550220334475418
H -4.975848219970439 3.914446314767566 4.680615200572541
O 7.825230997010423 2.337364746820424 7.473830167127124
H 7.793436673784006 3.1531585905486885 7.995785033418875
H 7.264649210894683 1.7209651381946296 7.968563962072703
O 7.253498728221221 -8.403051923641414 -1.8755370923881824
H 7.612165041456084 -7.57319993131303 -1.52672266682765
H 7.38799205482365 -8.332225228103471 -2.832541307947648
O 5.662546484373015 6.329960956829502 -3.547113344769245
H 5.416403495383769 7.1587362616660215 -3.98473473360276
H 5.187290305504428 5.650431439362423 -4.048444715858457
O -0.7243520391681986 -8.29379959192175 6.627039605714047
H -0.9588639341475629 -8.211904402893166 5.690415505005998
H -1.4194645206651182 -8.860692039623316 6.99366412086016
O -0.20206617867894017 -4.37005757656337 2.5715671331439696
H -0.2646109749968266 -4.950670490844403 3.3448356176457246
H -0.06532217776364063 -3.4889443339893322 2.950911931809172
O 4.39745723149194 -2.4997518708633426 7.500932073057693
H 4.240702838308623 -1.999736471415408 6.6858369758864145
H 3.6772844579799324 -2.223227624199924 8.087317152676242
O -1.4473520788776022 -6.4259181353247214 -6.259709223373291
H -1.8350910843263866 -6.687277748024152 -5.410994328132733
H -2.198182529742299 -6.0753047384369845 -6.761989846409017
C 13.25130919167696 -3.9622328420704904 5.167544447007276
O 12.440021610039297 -3.172441291329402 5.555951480360817
O 14.062596773314624 -4.7520243928115775 4.779137413653735
O 7.187895329319547 -2.837108397271039 8.851839817811411
H 6.5653463961351575 -3.2945393346523164 8.266897837596735
H 7.154203983080249 -1.9154186269580693 8.554661748652515
O 10.453058109452554 -2.2934139102784727 -7.675363636110487
H 10.381460712627552 -2.0458430563292724 -8.609467400123215
H 11.177538286625877 -1.7428867359441418 -7.342181632541318
O 0.21026186685024362 -9.830076204688323 -8.347521982042347
H 0.22337995664844001 -9.900773486203175 -7.381190172048256
H 0.8254578575459677 -9.10594504555219 -8.537600654438979
O 9.53460473633263 13.880417283799478 17.566893864107435
H 9.58373817609666 12.919697758356122 17.450398132731333
H 10.258999552005903 14.0793195820635 18.178982069410374
O -2.1555742404928564 4.497836868321608 -4.433497642907719
H -2.3385415393245843 5.435888111201091 -4.273653374350859
H -2.3512079317275445 4.378327984596877 -5.374989559954678
O -8.789339259731374 9.236801204158834 14.935307954938164
H -9.488217272645024 9.88580530085446 14.76404627668478
H -9.271816189573252 8.421217096271379 15.137793804892612
O -15.894860608365088 -8.05351848394117 3.582565805784026
H -15.334564924413591 -8.034930074713966 4.372939498721568
H -16.687223246584267 -8.53239305824881 3.868577232017345
O -9.438210923473212 -2.7772436605579793 5.232554860094561
H -8.747005227216992 -2.4861544258941626 5.846125638265904
H -9.278992486933868 -3.7280437591726363 5.134623219444945
O -0.9420674823322008 5.346155189797689 14.390774070979502
H -1.2489812493493642 5.087394642634124 13.508836275130525
H -0.7633610970764033 6.294877319838968 14.307393664775507
O -4.820034086437485 7.3171012740421215 -11.237676442855214
H -4.558578027360051 7.450843478387375 -10.31424744783255
H -5.724380078654492 7.662860505937726 -11.27731006772099
O 14.97373361509766 -4.024936924058278 7.4020980718143505
H 15.683725022887106 -4.240006311572824 6.7787003526019065
H 14.38286911995669 -3.4488273814030115 6.894221228924912
O 3.270536829701846 -6.779306414309527 -20.414520605109573
H 2.5305696373734525 -7.1125831996103095 -19.885046813919477
H 2.932384888004995 -5.955730426307535 -20.797061845517966
O -7.755391591862368 16.177988409375843 5.820105133610776
H -7.786898281516228 15.651273042301892 5.007365564317382
H -6.875988448238777 16.584522514894108 5.801609827843909
O -8.38964069480881 -17.854285662168415 -6.951765530353167
H -8.62525038687302 -17.775397099467146 -6.015158876212628
H -7.602810197617002 -18.419836772726082 -6.948351685617004
O -15.897867910633899 6.459061484767787 -0.8615057256556042
H -16.223974369512035 6.601741077389153 -1.7627628855313873
H -15.240031468313735 5.754348252098037 -0.9594466218925843
O -5.497871906576475 -11.18330490119546 -0.8494944393103525
H -5.3604646836601075 -12.103664185927272 -1.1197265598999744
H -6.114019550948699 -11.247640747102725 -0.10438711578846416
O -16.703606323480578 12.820386343768105 -8.778040096552395
H -16.693975025288996 12.532064865865257 -7.852975060798117
H -16.1342200885151 13.604424529725428 -8.784776764318213
O 5.112678606424985 17.05405696023093 -6.5980115803612245
H 4.700977984228627 17.842414933346376 -6.213353731346741
H 5.1045647797658384 16.409235523379504 -5.874754071106185
O -3.5935982140572187 12.625633365987307 -8.573212085729821
H -2.9038049504470145 12.717493267336296 -9.247537206796908
H -4.143549263885176 11.897213714713113 -8.898666535278004
O -1.705195352275041 -10.101939303253758 16.69140045873726
H -1.1278940791219698 -9.819642382480655 15.966142542242808
H -1.911511545421273 -9.279307490760416 17.160092760593784