194

C -5.0710522388059704 1.0783507462686561 0.47044029850746183
C -3.8153522388059704 0.1782507462686569 0.19534029850746193
C -4.11845223880597 -1.3219492537313435 0.5608402985074619
C -2.96945223880597 -2.3874492537313436 0.7034402985074619
C -2.52015223880597 0.7359507462686565 0.7384402985074618
C -2.20305223880597 0.7852507462686571 2.097440298507462
C -1.5755522388059702 1.205650746268656 -0.18965970149253808
C -0.9533522388059701 1.2695507462686564 2.508640298507462
H -2.91125223880597 0.4298507462686567 2.840840298507462
C -0.32655223880597006 1.6562507462686575 0.21554029850746192
H -1.7850522388059702 1.178550746268657 -1.2573597014925382
C 0.004447761194029898 1.6956507462686563 1.569740298507462
H -0.7158522388059702 1.2676507462686573 3.5705402985074617
H 0.3943477611940298 1.9193507462686572 -0.5551597014925382
C -1.76045223880597 -2.1592492537313435 -0.1734597014925381
C -0.5287522388059701 -1.936549253731343 0.464840298507462
C -1.8068522388059702 -2.121249253731343 -1.5681597014925381
C 0.6114477611940299 -1.614449253731343 -0.2582597014925381
H -0.4544522388059702 -1.954049253731343 1.5506402985074619
C -0.6479522388059701 -1.8270492537313432 -2.2998597014925384
H -2.74345223880597 -2.290549253731343 -2.092259701492538
C 0.5698477611940298 -1.5506492537313434 -1.6506597014925382
H 1.5072477611940298 -1.351949253731343 0.2991402985074618
H -0.7173522388059701 -1.7640492537313435 -3.3840597014925375
C 1.7791477611940298 -1.082849253731343 -2.4255597014925376
H 1.4739477611940297 -0.9102492537313429 -3.464259701492538
H 2.1252477611940295 -0.1337492537313434 -2.0010597014925384
C 1.3965477611940298 2.0964507462686566 1.997440298507462
H 1.51704776119403 1.8448507462686567 3.057640298507462
H 2.1256477611940294 1.5207507462686571 1.4165402985074618
C 3.94864776119403 -1.4275492537313434 -3.522959701492538
H 4.81734776119403 -2.087049253731343 -3.615159701492538
H 3.4305477611940303 -1.3641492537313429 -4.484459701492538
H 4.26984776119403 -0.441449253731343 -3.176459701492538
C 2.60904776119403 -3.4296492537313434 -2.8992597014925376
H 1.9825477611940296 -3.869549253731343 -2.119359701492538
H 2.06294776119403 -3.373349253731343 -3.845759701492538
H 3.5215477611940305 -4.019849253731343 -3.0234597014925377
C 3.7281477611940304 -2.060049253731343 -1.156659701492538
H 3.9048477611940298 -1.032549253731343 -0.8295597014925382
H 3.12924776119403 -2.623249253731343 -0.4404597014925382
H 4.68244776119403 -2.5769492537313434 -1.3005597014925383
C 3.1110477611940297 3.755250746268656 2.588740298507462
H 3.40124776119403 4.809350746268656 2.534540298507462
H 2.9823477611940303 3.461750746268656 3.634840298507462
H 3.86514776119403 3.1392507462686563 2.091540298507462
C 1.99744776119403 3.9574507462686572 0.40494029850746194
H 2.67914776119403 3.230350746268657 -0.04295970149253803
H 1.03214776119403 3.981150746268657 -0.10175970149253821
H 2.4399477611940297 4.958250746268657 0.368240298507462
C 0.7418477611940297 4.4992507462686575 2.475440298507462
H -0.18475223880597014 4.424250746268656 1.901240298507462
H 0.57844776119403 4.189650746268656 3.511940298507462
H 1.1210477611940297 5.524350746268658 2.4432402985074617
N 3.00114776119403 -2.025349253731343 -2.490159701492538
N 1.7831477611940298 3.586450746268657 1.862540298507462
C -3.55075223880597 -3.8435492537313434 0.6444402985074619
H -2.62515223880597 -2.2736492537313433 1.7424402985074618
H -4.67195223880597 -1.3478492537313436 1.5102402985074619
H -4.83415223880597 -1.6757492537313432 -0.1945597014925382
H -3.7169522388059697 0.17335074626865676 -0.900559701492538
H -3.9132522388059705 -4.043149253731343 -0.34225970149253815
H -4.35435223880597 -3.9354492537313432 1.3449402985074619
H -2.78115223880597 -4.545049253731343 0.8904402985074619
H -5.24235223880597 1.138950746268657 1.5249402985074618
H -5.92805223880597 0.6501507462686567 -0.006059701492538094
H -4.89895223880597 2.059650746268657 0.08004029850746197
C -0.8825200331895533 1.3553550348836712 -4.896862086899716
O -0.08836879507112139 0.7055647914233771 -4.234387974878143
O -1.0483428482711017 2.577676762399201 -4.812815358576231
O -1.6432696656436252 0.8911579497270543 -5.7538506791534845
O -0.26060402429728713 -4.381936609815341 -1.9039350234162953
H 0.08990020931362297 -3.745167425046202 -1.2631237060620555
H -1.0310321954451953 -4.763703937239458 -1.4571061018891227
O 2.163583623087538 -1.5948107009029842 3.6949293476561245
H 1.5198896306051486 -1.6189434265394098 2.9710211956814145
H 1.726472776312685 -2.0767905085252196 4.412976363509685
O -1.113293801114031 -1.625558464715076 8.008971307654852
H -1.296358508585909 -2.113900390102824 8.825657804229165
H -1.9839815494914794 -1.3082181859213864 7.725846005746755
O -3.0725531694141965 3.3461193034069434 -3.500897139087063
H -3.6969844975398383 3.706818669715975 -2.8536345644703074
H -3.629775215410272 2.825494158040239 -4.098739086233501
O 6.713723362490162 1.4415237713807847 4.173575522875124
H 6.847511981352648 1.2751268368578326 3.2283876989246494
H 6.1823885655291235 2.251557700780015 4.195718491520142
O -6.997434856762248 -0.9584443635510826 8.393593269710156
H -7.292681713988243 -0.1765144513053425 8.88388120810304
H -7.396048390430512 -0.8494482391779199 7.5171293286674405
O 4.476425382777794 -0.9643821519456282 -8.42200892547274
H 4.373087308540259 -0.2898587905385197 -7.734035936010992
H 3.9867257876456765 -0.6054099723448161 -9.177187861288672
O 6.764404224811084 -3.700895745588302 5.90529460007053
H 7.701475970609551 -3.798340252928201 5.678648470353967
H 6.563986452135701 -2.7796912180097886 5.681292637881162
O 3.224077370729786 4.993395318104223 -3.1824612783180957
H 2.8693020986947273 5.894232054993244 -3.222399189174727
H 3.15200581467953 4.754756210216097 -2.2460751339872145
O 6.723845192351427 -0.5454640544723028 -0.5252551232962974
H 6.778871617957285 -0.8286755939814701 -1.450312242221335
H 7.4764646228246034 -0.9842294384685135 -0.10097823849005588
O -2.9917073969296477 -2.1248140836866956 -6.303495599868976
H -3.1633773057859687 -1.825294529287257 -7.2089153013475915
H -2.0977619971028316 -2.496386957627586 -6.345414161148912
O 7.357896314350238 -4.503271064501287 -2.739661115942579
H 7.575485655173887 -4.272215568525895 -1.8241090456377291
H 8.068605217552586 -4.09767711960964 -3.2586489299383885
O -4.583972577037873 1.4795667783110829 6.044936920938659
H -5.363517135355865 1.010577413271084 6.3785933519814115
H -4.393015136747782 2.1350012178908537 6.732616276242138
O -2.2585818946213614 4.096221143117006 -6.079836482610441
H -1.8623635514144914 4.868260087222505 -6.511037422070074
H -3.1518352270512904 4.052530828259853 -6.452866755900034
O 0.4980582498755268 1.0147146899087653 6.236738749361885
H -0.06446753862502752 1.2545860439505165 6.988399462504463
H 0.8952254485544637 1.8554302755773437 5.963943103121951
O -1.0304128179327416 -6.992895286563811 -6.655582350110668
H -1.4646728648647902 -7.131955870568076 -5.8005690621934765
H -1.4936742032401134 -6.229566179666954 -7.0319857344566925
O 7.958284196862655 1.6867239411524824 -3.0490490000906183
H 8.582407465519102 1.3775985122029466 -3.722754404253565
H 7.9949119743103365 1.0020637936232553 -2.3643148673029364
O 6.562980088729087 -6.215845590021459 3.7884342551948977
H 5.8628424550511795 -6.025530118700132 3.1461300654345914
H 6.576741860882056 -5.432500724338812 4.35864770587442
O 1.4093587550098323 -6.3112780961700725 -4.259277893703592
H 1.6414285608673747 -6.708185249207119 -5.11225835888276
H 2.132233111771968 -5.68969056656125 -4.085947135698766
O -1.4049803259133793 -7.190274507986657 0.343978100424061
H -1.504727816490513 -7.366489745457276 -0.603632571269087
H -1.6707411959184955 -8.021173960113016 0.7658065071610184
C 11.747430162990991 -5.174170202770698 -0.4752339196746519
O 11.530939982078703 -5.119797153569827 -1.6512415005979917
O 11.963920343903277 -5.228543251971569 0.7007736612486879
O 9.211536688616224 13.688467412375049 2.7382725487555195
H 8.343090030371423 14.06705904686271 2.5347138766744655
H 9.821731372453316 14.434268145215418 2.6362644166693183
O -10.058935829989178 -13.962975458991115 4.143454812482321
H -10.440317416263856 -13.68658197704442 4.990285424640382
H -10.52991387370132 -14.782755676468884 3.931082446876088
O -8.882663018032861 -1.9834547317543114 -9.09632653978868
H -8.832505963694198 -1.2376104919526547 -8.47974889118734
H -9.802086210642415 -1.972916008043252 -9.402123649804775
O 5.676074022274404 1.6841716022357271 18.792819050314463
H 6.243418532938579 2.003502433528924 18.075103658738648
H 4.8357147473594955 1.482210713413215 18.35467520093334
O 13.43690533603719 11.208073009484375 1.2471724905110806
H 13.131978508251368 12.003949879070761 1.7082223739877538
H 14.387588373584869 11.354905615158863 1.1305367655810228
O -3.9371328085014117 4.370230132480414 13.131658386790292
H -4.155643452717975 4.915707005952987 13.902161751981286
H -2.991491287191941 4.186163279460732 13.235790279575063
O 15.779402641440132 -3.361884299532483 7.304288994774252
H 15.716708653093672 -3.5833519811640713 8.245558821507238
H 15.963148172792536 -2.4104769858123776 7.29942613471888
O 13.612894618330401 -5.319649323567796 5.607413783061999
H 13.246497366394292 -5.52391539550727 6.480910081009555
H 12.837922912597822 -5.073924790466471 5.0801564896595535
O 12.175256366544257 -14.140631827095554 -0.8551932078582372
H 12.161592393204764 -14.849487011443964 -1.5157270679706176
H 11.595930158554523 -14.466523787815657 -0.1501134116831917
O -8.554381430355424 -4.8756547755925705 -3.1573248702885754
H -8.856186062700118 -4.899540512504617 -4.077819733048522
H -8.99335626089894 -4.095068394427765 -2.787260086785307
O 12.588735613509897 -4.306650160578943 12.978346769299138
H 12.501226824600947 -4.111744444421635 12.033189993640784
H 11.820807491881972 -4.864138177680805 13.174447394236546
O -13.520799182462374 4.829412980532935 10.892164670729867
H -13.579555370760316 3.994332049083663 10.404153497531432
H -14.315493283159345 5.314185115633316 10.623056499825216
O -1.1568783885623137 -1.8205308423490663 18.800269802925108
H -0.6926878940591275 -0.9962908058973903 18.590215276615798
H -2.0805497100572943 -1.5480949008720106 18.9078425315287
O 4.493353411412402 3.924428348683973 -7.855538730062072
H 4.506629597368799 2.9555299612187147 -7.860736282724145
H 5.192045190573434 4.171434530601842 -8.479862114316697
O -13.797736784881428 9.042856481619928 6.158712886466803
H -13.685850524251773 9.047864430468884 5.19620379974053
H -14.75375838629174 8.944826542835077 6.2827079389435
O 6.295509548738174 -10.200260147131925 14.932215863781117
H 6.6093164078417574 -9.491240243915925 14.351024510676893
H 5.6899656916232 -9.752386672481927 15.541878009658044
O -2.097827374608458 5.358661015938327 2.739993413480646
H -1.8586486107139724 5.913614177580501 3.4974812775321173
H -2.3951358461113417 4.528824433639211 3.1424121801289497
O 5.985711398434199 -3.686581738778602 11.254429303816497
H 5.664159643250006 -4.599495056878814 11.207941678869336
H 6.923158131593719 -3.756362762260645 11.019299179097573
O -15.970594708727067 -1.6924218483370943 -13.318391710469204
H -15.983595867758499 -0.8640638407144889 -13.82100621281802
H -16.457899085426707 -2.3142904200723224 -13.879440610510333
O -10.92265677091205 9.918114362588067 5.81031852587428
H -11.076433735692344 9.902255891414466 6.766910659907902
H -9.957129566305417 9.923524863832775 5.728526790712452