194

C -5.0710522388059704 1.0783507462686561 0.47044029850746183
C -3.8153522388059704 0.1782507462686569 0.19534029850746193
C -4.11845223880597 -1.3219492537313435 0.5608402985074619
C -2.96945223880597 -2.3874492537313436 0.7034402985074619
C -2.52015223880597 0.7359507462686565 0.7384402985074618
C -2.20305223880597 0.7852507462686571 2.097440298507462
C -1.5755522388059702 1.205650746268656 -0.18965970149253808
C -0.9533522388059701 1.2695507462686564 2.508640298507462
H -2.91125223880597 0.4298507462686567 2.840840298507462
C -0.32655223880597006 1.6562507462686575 0.21554029850746192
H -1.7850522388059702 1.178550746268657 -1.2573597014925382
C 0.004447761194029898 1.6956507462686563 1.569740298507462
H -0.7158522388059702 1.2676507462686573 3.5705402985074617
H 0.3943477611940298 1.9193507462686572 -0.5551597014925382
C -1.76045223880597 -2.1592492537313435 -0.1734597014925381
C -0.5287522388059701 -1.936549253731343 0.464840298507462
C -1.8068522388059702 -2.121249253731343 -1.5681597014925381
C 0.6114477611940299 -1.614449253731343 -0.2582597014925381
H -0.4544522388059702 -1.954049253731343 1.5506402985074619
C -0.6479522388059701 -1.8270492537313432 -2.2998597014925384
H -2.74345223880597 -2.290549253731343 -2.092259701492538
C 0.5698477611940298 -1.5506492537313434 -1.6506597014925382
H 1.5072477611940298 -1.351949253731343 0.2991402985074618
H -0.7173522388059701 -1.7640492537313435 -3.3840597014925375
C 1.7791477611940298 -1.082849253731343 -2.4255597014925376
H 1.4739477611940297 -0.9102492537313429 -3.464259701492538
H 2.1252477611940295 -0.1337492537313434 -2.0010597014925384
C 1.3965477611940298 2.0964507462686566 1.997440298507462
H 1.51704776119403 1.8448507462686567 3.057640298507462
H 2.1256477611940294 1.5207507462686571 1.4165402985074618
C 3.94864776119403 -1.4275492537313434 -3.522959701492538
H 4.81734776119403 -2.087049253731343 -3.615159701492538
H 3.4305477611940303 -1.3641492537313429 -4.484459701492538
H 4.26984776119403 -0.441449253731343 -3.176459701492538
C 2.60904776119403 -3.4296492537313434 -2.8992597014925376
H 1.9825477611940296 -3.869549253731343 -2.119359701492538
H 2.06294776119403 -3.373349253731343 -3.845759701492538
H 3.5215477611940305 -4.019849253731343 -3.0234597014925377
C 3.7281477611940304 -2.060049253731343 -1.156659701492538
H 3.9048477611940298 -1.032549253731343 -0.8295597014925382
H 3.12924776119403 -2.623249253731343 -0.4404597014925382
H 4.68244776119403 -2.5769492537313434 -1.3005597014925383
C 3.1110477611940297 3.755250746268656 2.588740298507462
H 3.40124776119403 4.809350746268656 2.534540298507462
H 2.9823477611940303 3.461750746268656 3.634840298507462
H 3.86514776119403 3.1392507462686563 2.091540298507462
C 1.99744776119403 3.9574507462686572 0.40494029850746194
H 2.67914776119403 3.230350746268657 -0.04295970149253803
H 1.03214776119403 3.981150746268657 -0.10175970149253821
H 2.4399477611940297 4.958250746268657 0.368240298507462
C 0.7418477611940297 4.4992507462686575 2.475440298507462
H -0.18475223880597014 4.424250746268656 1.901240298507462
H 0.57844776119403 4.189650746268656 3.511940298507462
H 1.1210477611940297 5.524350746268658 2.4432402985074617
N 3.00114776119403 -2.025349253731343 -2.490159701492538
N 1.7831477611940298 3.586450746268657 1.862540298507462
C -3.55075223880597 -3.8435492537313434 0.6444402985074619
H -2.62515223880597 -2.2736492537313433 1.7424402985074618
H -4.67195223880597 -1.3478492537313436 1.5102402985074619
H -4.83415223880597 -1.6757492537313432 -0.1945597014925382
H -3.7169522388059697 0.17335074626865676 -0.900559701492538
H -3.9132522388059705 -4.043149253731343 -0.34225970149253815
H -4.35435223880597 -3.9354492537313432 1.3449402985074619
H -2.78115223880597 -4.545049253731343 0.8904402985074619
H -5.24235223880597 1.138950746268657 1.5249402985074618
H -5.92805223880597 0.6501507462686567 -0.006059701492538094
H -4.89895223880597 2.059650746268657 0.08004029850746197
C -0.7342778468841132 3.6227981599669534 -2.8162486952321055
O -0.7167877397680318 3.1787116267379814 -1.6785946415946473
O -1.37688668971601 3.1445285104258214 -3.758025463655522
O -0.11206654053694476 4.619211824417686 -3.201814881443516
O 7.796643011705356 4.417243592842512 -1.275236555635432
H 8.690868743802957 4.283374245712463 -1.6236711906151993
H 7.857466006510957 5.253506997439663 -0.789514386350912
O -1.7097145517057273 6.712145083893539 -1.0185820247255102
H -1.4606513701612167 6.611127559676955 -1.9495655628721733
H -0.9545846491333547 7.172798504953121 -0.6229316737751535
O -4.134254897132759 3.816148641690861 -8.148018417997875
H -3.8863788676523154 4.017679087388647 -7.2331903957085135
H -4.5232154018357615 4.642205180747813 -8.472521521777228
O -0.3559195365236365 -4.648433458452719 -6.191965155142794
H -0.30244505747681427 -5.612257889655281 -6.1074056919956625
H -0.0618087708215993 -4.47638435235239 -7.099081413892597
O 4.039526020001281 9.158079389883616 1.5692130423557307
H 4.396967879725218 9.109144281559182 0.6698754922721313
H 3.079908483724477 9.189090420434527 1.4383144390239755
O -9.018816007115971 -5.9143853371062445 -4.851822550752359
H -8.983031712689034 -6.045633827293682 -5.811228968802544
H -8.261358237466395 -5.33938322696774 -4.665832645559222
O 4.112856012126736 -0.48277936743412686 2.2761761038791906
H 4.603822849849296 -1.0400180486179305 2.8985939485376204
H 4.579256613016082 -0.6038661349503951 1.4354797148524994
O -4.48358634752658 1.8483504525637118 5.60844472369645
H -5.221404818751358 2.469848830284861 5.517170264456684
H -4.471481810301274 1.636651365022968 6.55395988529513
O -9.133451968484277 -0.6035980655398316 -0.9343568186967202
H -8.8205721255808 -0.5820395549162782 -0.017509616909862746
H -10.083594313135446 -0.4278113850656018 -0.861620911686316
O 7.340644351155887 -2.997018393621253 -2.6704779986830363
H 6.497732120448575 -3.3518529933821153 -2.350230071232172
H 7.942208617589811 -3.1086950654379546 -1.919072183812165
O -5.178106972569695 -8.318577847432993 1.482840380306203
H -4.4430396974782695 -7.970253478243819 2.0094461074101058
H -4.802838126744632 -9.095897752987295 1.0424893815765803
O 4.324243390857025 0.12358088461199779 -8.146480938309024
H 4.624539892130334 0.7325799157735571 -7.4551709150435626
H 3.4306169871687295 0.43250420645832977 -8.35851908617527
O 0.9331335780896177 -9.258250573154768 -6.269281420819471
H 1.1817888945787365 -9.10513886624171 -5.3453254177068406
H 1.7532283426901656 -9.102288347022174 -6.761300023511014
O 6.93189157621535 -0.5247009803887828 -1.9196925639499756
H 6.746866133379988 -0.570182449071321 -2.8697790749636085
H 6.4279464180581165 -1.2639127181663912 -1.5474463704144485
O 1.5123744393791454 6.2372255469106745 5.432916882184182
H 1.0145882926404268 7.005859059469033 5.749743068581741
H 2.3515219938013887 6.6121385747129615 5.125942049679484
O 9.408835141870998 1.3722572341663182 0.60158360988532
H 9.189772145666968 1.5847870315647987 1.5212628179855543
H 9.529862365143623 0.410854564309163 0.6059724501025453
O -1.799409389593566 10.461420666459958 1.680518264698362
H -2.2129694636357087 9.905696276260691 2.3580917472048073
H -2.5496957922969603 10.834778542247266 1.1940656413053032
O -7.674070323481029 -5.639264152390579 2.530536696659711
H -7.45305949089966 -6.362000609146862 1.9240933086529943
H -8.39593099594816 -5.171664824562851 2.0841848371807163
O -5.514477155322806 3.190703169035981 -5.1101330518070744
H -6.375772863960353 3.4504372676295 -5.470237560540802
H -5.7181620472926245 2.4360441762838514 -4.537451452887059
O 6.898336745875853 -3.0872157513078218 2.1608734025898584
H 6.327745075992926 -3.022951039657646 1.3803206817588216
H 7.48003990758979 -3.8368929040665796 1.964487194867596
C -5.2675695887814005 -8.295143587115778 -7.774529149503354
O -6.412861103204586 -8.291761724221923 -7.4265145416294684
O -4.122278074358215 -8.298525450009633 -8.122543757377239
O -12.928714675912229 -9.781460317481631 0.030806433771433328
H -12.88961547724302 -9.551347609856837 0.9712779917427585
H -12.00086386732322 -9.909169980044107 -0.217679105825749
O 19.403241282689944 -7.323983362198807 0.6873089450382608
H 19.35212902916861 -6.59674492993038 1.3256498861283168
H 19.825660212852664 -6.925342093916232 -0.08832584722046821
O -2.7054229234626472 6.46786658073921 -16.154458626509403
H -3.5093061902008653 6.02366185290327 -16.463361863990805
H -2.7815185074721676 7.365098499808192 -16.512433890735913
O 4.98049635623981 -1.4140833969229356 11.890090370080175
H 4.941147257970839 -1.4317761345790925 12.858132710269722
H 4.9009978126713705 -0.4738208700014006 11.669753568030162
O 2.805995681039698 -16.87260309753421 -1.8388577344944315
H 2.7214747437528604 -17.74863730290997 -1.4334102791172745
H 3.0401640109555195 -17.062512109293944 -2.7597603921173084
O -7.130121675295096 -3.906279522122093 -13.440547732161603
H -8.034793886753842 -3.5836861101010364 -13.568879478954642
H -6.784948676535026 -3.3554682732697847 -12.721920907331956
O -10.39695755201035 10.172547003259348 11.309134329300013
H -10.333905694219316 9.523268604414085 10.59259446235468
H -11.234044860319997 10.629609185529427 11.137842344357852
O -6.535230663181673 4.6864489339385855 8.109335446585028
H -6.969412455751177 5.454690081286939 7.70901174328729
H -6.956928584177702 4.605553672934229 8.97800613474865
O -12.31041315875446 6.718789200388775 -2.555010311423804
H -12.09457010681583 6.644838914823909 -1.6132510592289058
H -11.99721110653916 5.883429751184374 -2.9332179388099315
O -7.071297201727145 -11.777666334489625 11.924953238828795
H -6.957793209554534 -12.01930728780024 10.993452379814686
H -6.192171793652979 -11.910893229434661 12.310116912663355
O -15.600555295637308 2.872453194435749 9.37976715756756
H -15.564042061052948 3.003736491885598 8.420392967581773
H -16.497430683623765 3.149714459665869 9.619980965511935
O 6.505322278567201 -9.117141122260579 -18.367552857110283
H 6.213800201932017 -8.706581426649933 -19.195455612314298
H 5.860026596300104 -9.824169484040429 -18.216999469946984
O 10.736077518971051 2.6687930683958214 -19.514987604779684
H 11.494845863027248 2.1233457471872867 -19.77135682435304
H 11.124970651133673 3.535285648688461 -19.322855659610365
O 13.872322949678628 10.157645056268496 12.080883288926419
H 13.20560017609499 10.535063436867986 12.674182088917286
H 13.362123622665717 9.867421041834367 11.309891322391545
O 2.772452902846055 -18.929138680569878 3.185683369372752
H 2.1028577989880493 -19.581935190881254 2.931780888261042
H 2.477711387721145 -18.112213294492214 2.755890050271901
O 1.8799132501260079 -8.242660260479745 0.09863815498960804
H 2.3545852367295246 -8.962839960548921 -0.3429442967021954
H 1.3307034207962254 -8.693636346675536 0.7573877867519938
O 12.332235823731045 2.0274026547748094 -4.655169479185604
H 13.27064696346164 2.25224166891208 -4.74348316697694
H 12.319671407970771 1.0589760409406266 -4.686055938585488
O -16.087232084736936 -7.702893995648587 8.189259190768675
H -15.773967816083319 -8.084180157860157 9.023197868005129
H -15.273276393742705 -7.466672783860244 7.719538405089194
O 6.828025773174508 12.421144411051237 -4.04994243300483
H 7.479270510698067 12.404126585018284 -3.3326154208653285
H 6.690118849833035 13.365350987882602 -4.218517535148894
O -9.580265083085198 6.913034954365129 8.199102805034356
H -10.164661637622254 6.177422468823376 7.961779618092363
H -8.913227689996479 6.50646346070364 8.772446228353463