194

C -5.0710522388059704 1.0783507462686561 0.47044029850746183
C -3.8153522388059704 0.1782507462686569 0.19534029850746193
C -4.11845223880597 -1.3219492537313435 0.5608402985074619
C -2.96945223880597 -2.3874492537313436 0.7034402985074619
C -2.52015223880597 0.7359507462686565 0.7384402985074618
C -2.20305223880597 0.7852507462686571 2.097440298507462
C -1.5755522388059702 1.205650746268656 -0.18965970149253808
C -0.9533522388059701 1.2695507462686564 2.508640298507462
H -2.91125223880597 0.4298507462686567 2.840840298507462
C -0.32655223880597006 1.6562507462686575 0.21554029850746192
H -1.7850522388059702 1.178550746268657 -1.2573597014925382
C 0.004447761194029898 1.6956507462686563 1.569740298507462
H -0.7158522388059702 1.2676507462686573 3.5705402985074617
H 0.3943477611940298 1.9193507462686572 -0.5551597014925382
C -1.76045223880597 -2.1592492537313435 -0.1734597014925381
C -0.5287522388059701 -1.936549253731343 0.464840298507462
C -1.8068522388059702 -2.121249253731343 -1.5681597014925381
C 0.6114477611940299 -1.614449253731343 -0.2582597014925381
H -0.4544522388059702 -1.954049253731343 1.5506402985074619
C -0.6479522388059701 -1.8270492537313432 -2.2998597014925384
H -2.74345223880597 -2.290549253731343 -2.092259701492538
C 0.5698477611940298 -1.5506492537313434 -1.6506597014925382
H 1.5072477611940298 -1.351949253731343 0.2991402985074618
H -0.7173522388059701 -1.7640492537313435 -3.3840597014925375
C 1.7791477611940298 -1.082849253731343 -2.4255597014925376
H 1.4739477611940297 -0.9102492537313429 -3.464259701492538
H 2.1252477611940295 -0.1337492537313434 -2.0010597014925384
C 1.3965477611940298 2.0964507462686566 1.997440298507462
H 1.51704776119403 1.8448507462686567 3.057640298507462
H 2.1256477611940294 1.5207507462686571 1.4165402985074618
C 3.94864776119403 -1.4275492537313434 -3.522959701492538
H 4.81734776119403 -2.087049253731343 -3.615159701492538
H 3.4305477611940303 -1.3641492537313429 -4.484459701492538
H 4.26984776119403 -0.441449253731343 -3.176459701492538
C 2.60904776119403 -3.4296492537313434 -2.8992597014925376
H 1.9825477611940296 -3.869549253731343 -2.119359701492538
H 2.06294776119403 -3.373349253731343 -3.845759701492538
H 3.5215477611940305 -4.019849253731343 -3.0234597014925377
C 3.7281477611940304 -2.060049253731343 -1.156659701492538
H 3.9048477611940298 -1.032549253731343 -0.8295597014925382
H 3.12924776119403 -2.623249253731343 -0.4404597014925382
H 4.68244776119403 -2.5769492537313434 -1.3005597014925383
C 3.1110477611940297 3.755250746268656 2.588740298507462
H 3.40124776119403 4.809350746268656 2.534540298507462
H 2.9823477611940303 3.461750746268656 3.634840298507462
H 3.86514776119403 3.1392507462686563 2.091540298507462
C 1.99744776119403 3.9574507462686572 0.40494029850746194
H 2.67914776119403 3.230350746268657 -0.04295970149253803
H 1.03214776119403 3.981150746268657 -0.10175970149253821
H 2.4399477611940297 4.958250746268657 0.368240298507462
C 0.7418477611940297 4.4992507462686575 2.475440298507462
H -0.18475223880597014 4.424250746268656 1.901240298507462
H 0.57844776119403 4.189650746268656 3.511940298507462
H 1.1210477611940297 5.524350746268658 2.4432402985074617
N 3.00114776119403 -2.025349253731343 -2.490159701492538
N 1.7831477611940298 3.586450746268657 1.862540298507462
C -3.55075223880597 -3.8435492537313434 0.6444402985074619
H -2.62515223880597 -2.2736492537313433 1.7424402985074618
H -4.67195223880597 -1.3478492537313436 1.5102402985074619
H -4.83415223880597 -1.6757492537313432 -0.1945597014925382
H -3.7169522388059697 0.17335074626865676 -0.900559701492538
H -3.9132522388059705 -4.043149253731343 -0.34225970149253815
H -4.35435223880597 -3.9354492537313432 1.3449402985074619
H -2.78115223880597 -4.545049253731343 0.8904402985074619
H -5.24235223880597 1.138950746268657 1.5249402985074618
H -5.92805223880597 0.6501507462686567 -0.006059701492538094
H -4.89895223880597 2.059650746268657 0.08004029850746197
C -0.6661410026573404 0.4463483523736018 -4.6418828604988835
O 0.2106421334999813 1.084162829746454 -5.204216856629054
O -1.1982622287049904 0.7581501751117448 -3.5703148093576047
O -1.156997726659619 -0.6096269391487106 -5.05736359963864
O -8.740452974132948 0.8945592675885687 -2.318503182454796
H -8.214298660326829 0.6179410453876342 -3.0837556598174034
H -9.136428889513555 0.070813831915439 -1.9966204771937395
O -2.7126810685999105 -10.296143668634748 -6.797154683508142
H -2.652616545484472 -11.156843383418693 -6.356070098724503
H -1.894284224935653 -10.239838832135518 -7.312924318100155
O -4.187718221850268 -7.990864722105327 6.073853958076386
H -3.801551106064672 -8.187909569413145 6.940465545660624
H -3.4377529044883377 -7.669781405176228 5.550958681138428
O -3.083541764534798 11.513712585724189 0.5883685038735864
H -2.3541568382520177 12.0504149687352 0.9332098272119707
H -2.847940693362425 10.608451446082633 0.8412644283510238
O -6.73262674727392 6.356103854987336 -3.598555129004518
H -6.578185529423653 6.331435322458968 -4.554853581702118
H -5.985243123771857 5.863107605767181 -3.2279686183544607
O -8.48376708276803 -2.236829086987996 -3.970239691033428
H -8.004714686351331 -1.8167653925467813 -3.240155688332493
H -8.87254929796261 -1.4926403545568225 -4.453968400095517
O 2.9279502596309794 -5.2037034768962185 2.863299184212074
H 2.0057168803361356 -5.320201414725751 2.589654923362553
H 3.059075071961094 -5.884656850974707 3.540108411559422
O 4.58558720373705 7.778957239366569 -2.447109672315606
H 4.611556084612787 8.353361792396619 -3.227079148375028
H 3.7552465491816904 8.017533536099192 -2.0082729232506216
O 3.3763094096509465 3.1682287391933177 -2.6856295803957098
H 4.121368300011231 3.29493386106428 -3.292095093748914
H 2.820183105024524 2.5121150400069334 -3.131948178868277
O 3.540064152476033 -5.3471648913219445 7.340619290723766
H 3.45620581962206 -5.441718003739726 6.3798930831895575
H 3.0770809325484167 -6.121882787931631 7.693352423613376
O -6.895679927038638 -2.6456217561712667 -1.4641386604715523
H -6.865532594533139 -2.8691575392601343 -0.5217532568697933
H -7.091527803648257 -3.489299856458264 -1.8986646281922714
O 8.36202960280115 0.0508672530404537 6.828551695717753
H 8.270940468738715 -0.30449885521789 7.7254268574080935
H 8.065000274690862 -0.6740557824366764 6.258269208544095
O -3.4117038171025396 1.4483427261867763 -3.1550803310186777
H -2.869747277379913 2.223449360237722 -3.3659361391010996
H -4.307283798888765 1.8068330878156462 -3.0635210543560367
O -2.011834915825494 -6.404400677278158 7.7507971882245075
H -1.6476011013827003 -6.330729762370581 8.645712648820163
H -1.5775756127985145 -7.189747246778707 7.385268026859453
O -0.6335578945282343 -0.37449193947612813 8.97569189523531
H -0.96037854223239 0.5329863547171565 9.068636861222089
H 0.328789929011283 -0.27272429322485103 8.925772389977064
O -2.9897528271804945 -8.722063013784421 -1.5279134898889128
H -3.529495894674554 -8.656606943856104 -2.330010915954876
H -2.7474354699096537 -7.804253578216721 -1.3333111192759781
O 8.003066288610961 -1.3860997057787583 -0.32231827290727577
H 8.393399879742582 -1.8408797269158803 0.4391160163841995
H 7.680780792848861 -0.5492688052315535 0.044843881202772384
O 7.978562937093065 4.7415935174084884 -5.194440219230473
H 8.127438864049436 4.562600281772955 -4.253820882373312
H 7.076951167905704 4.424060795319653 -5.35328332536256
O 7.560918196568122 2.473348179508477 2.4266608658205495
H 8.008945348356132 1.851402130562477 1.833852177995225
H 6.728284622671935 2.6713338906661463 1.9722547323911552
O -3.8712078398870773 6.359653624513092 -4.1968091593406305
H -3.2127843990813543 6.51578758073922 -4.890399901212761
H -3.6974315567533345 5.450701525538762 -3.909459495184954
C -9.423259435133188 7.606381007586014 -6.27257121008667
O -8.764251844151266 6.769441663223155 -5.726622690365559
O -10.08226702611511 8.443320351948874 -6.81851972980778
O -12.071058320978183 11.300093097948114 -11.506567333740035
H -12.3065377116315 11.029277094476278 -12.406664831648502
H -12.866414340026282 11.74790953310551 -11.18125027659903
O -14.975935105237484 -0.44526239262836154 1.1562672450912181
H -14.263031861851735 -0.9140852562568639 0.6969836235573661
H -14.931946246303296 -0.7832299648433667 2.0633531532172134
O -7.562445221199356 -1.6012394578897267 -12.651982161892017
H -8.140362603095832 -1.6220127298516167 -13.42950857801813
H -7.853965843664621 -0.8161174605500159 -12.164579740610826
O -3.5157363042218326 -9.600116641438724 -15.362080269067043
H -2.6173732920660737 -9.237251166111713 -15.346591495515373
H -4.008791079465318 -8.980625366017465 -15.920729973789541
O 3.5985536141232917 -5.264561908685218 -9.678711585013712
H 4.1920579403891125 -5.431311351129832 -10.42631749393108
H 4.175321578863068 -4.8754682914802565 -9.004243782816825
O 5.536402226584662 6.046189597131841 4.948616630700698
H 5.650112338986722 6.318038532308265 5.871728500238166
H 5.8657251139835624 6.802187967786168 4.439720920654668
O 17.823412246325965 -2.8105070801572403 -1.6247781386642848
H 18.534808082882478 -2.445892735825973 -1.0771106295513728
H 17.039405257823024 -2.3094997997767344 -1.3540629907979795
O -9.741200526850774 -13.22449306105828 1.5408137645461146
H -9.775819925510875 -13.329674747254932 2.503469293292116
H -9.582494972327112 -14.122374785811951 1.212815441963964
O 0.18392241695862444 12.979676130481295 17.746641322862533
H -0.6257900011350954 13.23779519965679 18.212160069007947
H 0.329316728231527 13.698769870853182 17.113611599146935
O 0.810925180150722 2.861755114265896 8.78513798989416
H 0.6727894739666653 2.7052078897143246 9.73138259361047
H 1.0816023312255916 3.7910234605241726 8.738703467947662
O 5.79183894159262 2.915176999382318 15.64648191192623
H 5.623448568018082 2.9986503105390603 14.695879868318096
H 5.51940937181351 3.7717143482145334 16.00854246468702
O -5.0408306060037305 -9.441163133000629 14.761465497965425
H -4.076223169424698 -9.515428971104598 14.816095485034275
H -5.335377334950209 -9.537619525563247 15.679561534935814
O -4.993218656472494 -13.695176380221113 8.675000644376533
H -4.948374450902207 -12.773542583565138 8.970884910582539
H -5.352576760753377 -14.169330170359764 9.439854800725836
O 1.9123657796383418 -18.87120763741614 7.223745859804264
H 2.2879398728024842 -18.999681330720612 6.339774159141486
H 2.6514956886712095 -18.521172085006985 7.743480440068732
O -12.059816194193651 5.864878267767302 3.9563553619267458
H -11.705739824595268 5.210577857555248 4.577232366323245
H -11.32735476103132 6.025510962879521 3.342629584000832
O -10.063491137330336 -11.572281414164145 14.948517891424643
H -9.971107940928496 -11.66363499981878 13.988264162293314
H -10.989297252937615 -11.803058594404293 15.11759442345842
O -0.3005847061163829 1.4513849828626517 -17.247717973187473
H -0.9447803209048664 1.8888050614763525 -16.670965823982225
H -0.583955482317815 0.5247706420794223 -17.254704456556002
O -8.735128851863553 -14.801877856746874 12.49556964175431
H -9.625133656571458 -15.179311203111832 12.56192379421361
H -8.806822381146377 -13.951288089311364 12.954175169079242
O -16.19596071725593 7.6483782045982664 -5.493844928751939
H -17.141317434913642 7.6410182364960075 -5.2812094092614945
H -15.780046719538092 8.01406361278701 -4.698702379871425
O -7.5802654234394495 -13.307290298141577 5.1787140470558155
H -8.191024079676998 -13.191790546340098 5.9220854401459055
H -6.928725187256191 -12.600201956187943 5.299060802755866