194

C -5.0710522388059704 1.0783507462686561 0.47044029850746183
C -3.8153522388059704 0.1782507462686569 0.19534029850746193
C -4.11845223880597 -1.3219492537313435 0.5608402985074619
C -2.96945223880597 -2.3874492537313436 0.7034402985074619
C -2.52015223880597 0.7359507462686565 0.7384402985074618
C -2.20305223880597 0.7852507462686571 2.097440298507462
C -1.5755522388059702 1.205650746268656 -0.18965970149253808
C -0.9533522388059701 1.2695507462686564 2.508640298507462
H -2.91125223880597 0.4298507462686567 2.840840298507462
C -0.32655223880597006 1.6562507462686575 0.21554029850746192
H -1.7850522388059702 1.178550746268657 -1.2573597014925382
C 0.004447761194029898 1.6956507462686563 1.569740298507462
H -0.7158522388059702 1.2676507462686573 3.5705402985074617
H 0.3943477611940298 1.9193507462686572 -0.5551597014925382
C -1.76045223880597 -2.1592492537313435 -0.1734597014925381
C -0.5287522388059701 -1.936549253731343 0.464840298507462
C -1.8068522388059702 -2.121249253731343 -1.5681597014925381
C 0.6114477611940299 -1.614449253731343 -0.2582597014925381
H -0.4544522388059702 -1.954049253731343 1.5506402985074619
C -0.6479522388059701 -1.8270492537313432 -2.2998597014925384
H -2.74345223880597 -2.290549253731343 -2.092259701492538
C 0.5698477611940298 -1.5506492537313434 -1.6506597014925382
H 1.5072477611940298 -1.351949253731343 0.2991402985074618
H -0.7173522388059701 -1.7640492537313435 -3.3840597014925375
C 1.7791477611940298 -1.082849253731343 -2.4255597014925376
H 1.4739477611940297 -0.9102492537313429 -3.464259701492538
H 2.1252477611940295 -0.1337492537313434 -2.0010597014925384
C 1.3965477611940298 2.0964507462686566 1.997440298507462
H 1.51704776119403 1.8448507462686567 3.057640298507462
H 2.1256477611940294 1.5207507462686571 1.4165402985074618
C 3.94864776119403 -1.4275492537313434 -3.522959701492538
H 4.81734776119403 -2.087049253731343 -3.615159701492538
H 3.4305477611940303 -1.3641492537313429 -4.484459701492538
H 4.26984776119403 -0.441449253731343 -3.176459701492538
C 2.60904776119403 -3.4296492537313434 -2.8992597014925376
H 1.9825477611940296 -3.869549253731343 -2.119359701492538
H 2.06294776119403 -3.373349253731343 -3.845759701492538
H 3.5215477611940305 -4.019849253731343 -3.0234597014925377
C 3.7281477611940304 -2.060049253731343 -1.156659701492538
H 3.9048477611940298 -1.032549253731343 -0.8295597014925382
H 3.12924776119403 -2.623249253731343 -0.4404597014925382
H 4.68244776119403 -2.5769492537313434 -1.3005597014925383
C 3.1110477611940297 3.755250746268656 2.588740298507462
H 3.40124776119403 4.809350746268656 2.534540298507462
H 2.9823477611940303 3.461750746268656 3.634840298507462
H 3.86514776119403 3.1392507462686563 2.091540298507462
C 1.99744776119403 3.9574507462686572 0.40494029850746194
H 2.67914776119403 3.230350746268657 -0.04295970149253803
H 1.03214776119403 3.981150746268657 -0.10175970149253821
H 2.4399477611940297 4.958250746268657 0.368240298507462
C 0.7418477611940297 4.4992507462686575 2.475440298507462
H -0.18475223880597014 4.424250746268656 1.901240298507462
H 0.57844776119403 4.189650746268656 3.511940298507462
H 1.1210477611940297 5.524350746268658 2.4432402985074617
N 3.00114776119403 -2.025349253731343 -2.490159701492538
N 1.7831477611940298 3.586450746268657 1.862540298507462
C -3.55075223880597 -3.8435492537313434 0.6444402985074619
H -2.62515223880597 -2.2736492537313433 1.7424402985074618
H -4.67195223880597 -1.3478492537313436 1.5102402985074619
H -4.83415223880597 -1.6757492537313432 -0.1945597014925382
H -3.7169522388059697 0.17335074626865676 -0.900559701492538
H -3.9132522388059705 -4.043149253731343 -0.34225970149253815
H -4.35435223880597 -3.9354492537313432 1.3449402985074619
H -2.78115223880597 -4.545049253731343 0.8904402985074619
H -5.24235223880597 1.138950746268657 1.5249402985074618
H -5.92805223880597 0.6501507462686567 -0.006059701492538094
H -4.89895223880597 2.059650746268657 0.08004029850746197
C 3.0461379835872573 -1.3239348970831446 4.047015808087936
O 3.6291206792558537 -0.8218211184561788 4.995587591594026
O 2.107303417315511 -2.1241294029556164 4.130141460234871
O 3.3047915352934574 -1.1095696631962595 2.8571442725470653
O 7.835470701339953 -1.2802962984158157 1.1447991497858447
H 7.938941996469901 -1.5109875685118885 0.20936204025597727
H 8.318109794079088 -1.9781814983325947 1.612749679433009
O -2.338416195737768 -7.158755332645125 6.488363681711083
H -2.584375748592717 -8.086125667246831 6.352512595001728
H -2.888435017902598 -6.675344824450368 5.853733458564328
O -1.7014348891986604 6.590728902193739 0.7641400431749554
H -1.6607320260740492 7.109901969047884 -0.05303188517716373
H -2.639324954444087 6.362877812580771 0.850210077310601
O 4.31834268215421 -4.3004986718120755 0.7452957823612838
H 5.093165120659463 -4.050726104612476 0.21971875626206772
H 4.675691869039261 -4.447054762808997 1.6339941648985175
O 4.118167454131154 6.162854485164792 7.89691244924645
H 4.937874531194948 5.81227051927352 8.27656827703193
H 3.6637655294836184 5.377924957514059 7.555787147050011
O -4.618229072498629 -7.961716422180295 3.4903815450497904
H -4.2552193505498535 -8.247417063223553 2.6385796652807056
H -3.8360107541871713 -7.721636592777546 4.009475103391579
O 0.0915189873333766 -7.124217607578137 -8.180248930899081
H -0.25192260950133116 -7.033808708446219 -9.08182613636813
H -0.511003155167955 -7.757931131306873 -7.762713085804419
O -5.326039871828466 -8.15220663836849 -5.239907539802454
H -5.209554732939841 -7.780717069684471 -4.352555259320199
H -4.61055619545675 -7.752386476826806 -5.756810714072449
O 4.958447730074984 3.2752990870483747 -3.1857197222091127
H 4.8180847247853675 4.0089976766460484 -2.5685066607234917
H 4.289131762430964 3.4156385769397914 -3.8722202009662388
O 1.9462086701095187 2.621592885751145 -3.3278152047673313
H 2.1787792667280708 1.7805543458633202 -3.749161201439719
H 0.9892213587567724 2.5575164950666482 -3.189860696444155
O -6.094698974707223 4.489780583751486 -5.8487833094398365
H -6.034075150625707 4.839283770660618 -4.947040756826235
H -6.841838912106163 3.873872505685017 -5.811352070935422
O -6.871735234024905 -1.0491038427684787 -7.193214451865513
H -6.732611195839992 -1.3139671853416117 -8.114875598198651
H -7.825885839906935 -1.154277255744641 -7.060937776680887
O 2.4007308867908455 -2.114326011599565 -8.401247618212807
H 1.6304105648765708 -2.127820151043693 -7.813547127531923
H 2.0243462875937337 -2.2509867727261774 -9.283642322500816
O -8.922108715658343 3.457316445773462 -0.6107895516479047
H -8.596379631308753 4.293376275928778 -0.9766746168110574
H -9.873011296204176 3.4753178000397775 -0.7963216994171107
O -8.93921435476383 1.5657739565116364 -5.637732119685948
H -9.831024810363376 1.731251154418616 -5.296764723654912
H -8.635119934122857 0.7959285316312321 -5.133920101741022
O 2.74248023092417 -6.870433095780267 -6.136417201921799
H 2.468822505028452 -7.055199282113231 -5.225406629894471
H 1.919470533327734 -6.9291946410727725 -6.6445156793423275
O 0.24807622119293948 4.976413596340546 -6.086709898619016
H 1.0459455255529468 5.494431808909124 -5.902240222229281
H -0.4251206510459684 5.37083719258375 -5.5120813731920855
O -4.01129085572965 2.0987504090806866 6.027169363897212
H -4.374161588536515 2.5719178369776565 5.263359981034199
H -3.3389357019743833 2.701778760461962 6.378249552670535
O -7.06824186852595 -4.1677927542493585 3.8072814354804962
H -7.684221717320596 -3.9000162265936837 4.5057310857886606
H -7.195201446942155 -5.125933293636378 3.737927873700802
O -1.1853475296260048 -3.254446751528409 6.732257104824019
H -2.005421305122782 -3.4031334813638345 7.226563301440358
H -0.7840770721897923 -4.134559264695923 6.674413103796306
C -12.736535242503827 9.328817682473483 -9.473849833284675
O -12.665761835487432 9.531003436309236 -10.651529884531687
O -12.807308649520222 9.12663192863773 -8.296169782037664
O -4.648614880332563 16.549647693129206 -0.7693237794527674
H -4.382371806625706 16.229631342667986 0.10570280188096937
H -5.528298045709686 16.165362495875467 -0.9014008782388097
O 12.04208144944694 -19.680033794933784 2.2146547537847
H 12.320442540211644 -19.994732851957043 3.087836844506306
H 12.802895507220217 -19.171813297271054 1.8955374719743774
O -8.933648652805438 4.771789182345032 -9.164596075703153
H -8.997719246642674 4.410172055262214 -10.061309725262316
H -9.312838264030937 5.660080715504597 -9.242796684113097
O -1.627261712042258 -6.6296207179188995 11.778511505012261
H -1.675851071088485 -6.6394391572885105 12.746245987882343
H -2.52319155302779 -6.8681119941801265 11.496742849056831
O 12.452106137293631 -2.979863948878708 8.324433618875123
H 12.194321903555883 -2.6978060976879634 7.4339517188244235
H 13.337230237391717 -2.6034760550588185 8.442117199341476
O -5.315289546496639 -15.24015172108724 -0.8629778126481495
H -6.046272358666315 -15.654241601507701 -1.3458453474295664
H -4.523697044096731 -15.539431541715507 -1.3349681127698403
O -7.908770583303583 11.506464017277182 3.2558980066573238
H -8.700121007710163 11.929999847412546 2.8907278226566655
H -7.705262000996257 12.031265623864664 4.044649852899509
O 11.65675323951762 -1.59026716666061 1.6861966280007676
H 11.868120703717189 -1.112146271371011 0.8702973931283982
H 12.522783250257246 -1.7805401204287712 2.0770292876681244
O 7.271409717774485 -2.4155468324020832 10.973447302467813
H 8.092278310595013 -2.1149424116723177 11.391513197343931
H 6.711190667736096 -2.6776437767496795 11.719384130917607
O -3.475275475532901 9.490322029005425 -11.254006381651156
H -4.030200718469371 9.911942238065643 -10.580759227209404
H -2.6139696037186724 9.393970048967235 -10.820612293757645
O 0.5406622723681984 -22.406286636566016 4.961632958740367
H 0.30226173775297305 -21.984547092637047 4.122426012223738
H -0.3090358287710071 -22.531738135926734 5.410227433214336
O 4.294602244036413 -22.753389153431105 1.229584651289029
H 3.4928823150268338 -22.399182241360556 1.6428036921987195
H 4.090031443371582 -23.689660002049024 1.0863728157319485
O -8.591702413770644 -12.489614137721404 10.41409492662141
H -7.7631944732610405 -11.996130666615562 10.319142237571203
H -8.517754422633896 -12.905566578335264 11.286148368822179
O -10.814836361849455 -13.0976248456526 -1.0166100623839691
H -10.243511109345253 -13.224413490682458 -0.24428924028831922
H -11.296171669889297 -13.935262691014856 -1.0917173559783064
O 10.636438915172217 6.359124038358482 -11.811088581719545
H 11.114965703520422 5.755595311918943 -11.223098321514989
H 9.750304064153683 5.971968116274265 -11.873034220028293
O -9.838030557763492 -5.4106753687945455 4.924315683220314
H -9.731824026920032 -5.616250939407767 3.983344793939861
H -10.749414477782285 -5.6751506891522485 5.120259806767994
O 4.647004896507514 -0.4466160080844084 24.53444553649289
H 5.223373391170399 -0.09991771645372971 23.83690198241156
H 5.026649492187227 -1.3135594999841924 24.742390017361693
O -8.519924099066781 -9.89681063267108 3.236196965137862
H -8.534486676718725 -10.078116941572107 2.2844179411071686
H -7.822679541986453 -10.478432431470795 3.5746169040936553
O 2.0931719086678244 11.523949226875287 -7.686000502676416
H 2.4208390650694547 11.423415788541993 -6.77963709912762
H 2.3957666326569447 12.406498269650061 -7.947736179287913
O 6.0313897779040815 -0.46610326419429127 -8.86706959734045
H 6.1523672354443715 -1.3784401629588519 -8.56379876982855
H 5.07719577022855 -0.31747371425768445 -8.78716342172337