194

C -5.0710522388059704 1.0783507462686561 0.47044029850746183
C -3.8153522388059704 0.1782507462686569 0.19534029850746193
C -4.11845223880597 -1.3219492537313435 0.5608402985074619
C -2.96945223880597 -2.3874492537313436 0.7034402985074619
C -2.52015223880597 0.7359507462686565 0.7384402985074618
C -2.20305223880597 0.7852507462686571 2.097440298507462
C -1.5755522388059702 1.205650746268656 -0.18965970149253808
C -0.9533522388059701 1.2695507462686564 2.508640298507462
H -2.91125223880597 0.4298507462686567 2.840840298507462
C -0.32655223880597006 1.6562507462686575 0.21554029850746192
H -1.7850522388059702 1.178550746268657 -1.2573597014925382
C 0.004447761194029898 1.6956507462686563 1.569740298507462
H -0.7158522388059702 1.2676507462686573 3.5705402985074617
H 0.3943477611940298 1.9193507462686572 -0.5551597014925382
C -1.76045223880597 -2.1592492537313435 -0.1734597014925381
C -0.5287522388059701 -1.936549253731343 0.464840298507462
C -1.8068522388059702 -2.121249253731343 -1.5681597014925381
C 0.6114477611940299 -1.614449253731343 -0.2582597014925381
H -0.4544522388059702 -1.954049253731343 1.5506402985074619
C -0.6479522388059701 -1.8270492537313432 -2.2998597014925384
H -2.74345223880597 -2.290549253731343 -2.092259701492538
C 0.5698477611940298 -1.5506492537313434 -1.6506597014925382
H 1.5072477611940298 -1.351949253731343 0.2991402985074618
H -0.7173522388059701 -1.7640492537313435 -3.3840597014925375
C 1.7791477611940298 -1.082849253731343 -2.4255597014925376
H 1.4739477611940297 -0.9102492537313429 -3.464259701492538
H 2.1252477611940295 -0.1337492537313434 -2.0010597014925384
C 1.3965477611940298 2.0964507462686566 1.997440298507462
H 1.51704776119403 1.8448507462686567 3.057640298507462
H 2.1256477611940294 1.5207507462686571 1.4165402985074618
C 3.94864776119403 -1.4275492537313434 -3.522959701492538
H 4.81734776119403 -2.087049253731343 -3.615159701492538
H 3.4305477611940303 -1.3641492537313429 -4.484459701492538
H 4.26984776119403 -0.441449253731343 -3.176459701492538
C 2.60904776119403 -3.4296492537313434 -2.8992597014925376
H 1.9825477611940296 -3.869549253731343 -2.119359701492538
H 2.06294776119403 -3.373349253731343 -3.845759701492538
H 3.5215477611940305 -4.019849253731343 -3.0234597014925377
C 3.7281477611940304 -2.060049253731343 -1.156659701492538
H 3.9048477611940298 -1.032549253731343 -0.8295597014925382
H 3.12924776119403 -2.623249253731343 -0.4404597014925382
H 4.68244776119403 -2.5769492537313434 -1.3005597014925383
C 3.1110477611940297 3.755250746268656 2.588740298507462
H 3.40124776119403 4.809350746268656 2.534540298507462
H 2.9823477611940303 3.461750746268656 3.634840298507462
H 3.86514776119403 3.1392507462686563 2.091540298507462
C 1.99744776119403 3.9574507462686572 0.40494029850746194
H 2.67914776119403 3.230350746268657 -0.04295970149253803
H 1.03214776119403 3.981150746268657 -0.10175970149253821
H 2.4399477611940297 4.958250746268657 0.368240298507462
C 0.7418477611940297 4.4992507462686575 2.475440298507462
H -0.18475223880597014 4.424250746268656 1.901240298507462
H 0.57844776119403 4.189650746268656 3.511940298507462
H 1.1210477611940297 5.524350746268658 2.4432402985074617
N 3.00114776119403 -2.025349253731343 -2.490159701492538
N 1.7831477611940298 3.586450746268657 1.862540298507462
C -3.55075223880597 -3.8435492537313434 0.6444402985074619
H -2.62515223880597 -2.2736492537313433 1.7424402985074618
H -4.67195223880597 -1.3478492537313436 1.5102402985074619
H -4.83415223880597 -1.6757492537313432 -0.1945597014925382
H -3.7169522388059697 0.17335074626865676 -0.900559701492538
H -3.9132522388059705 -4.043149253731343 -0.34225970149253815
H -4.35435223880597 -3.9354492537313432 1.3449402985074619
H -2.78115223880597 -4.545049253731343 0.8904402985074619
H -5.24235223880597 1.138950746268657 1.5249402985074618
H -5.92805223880597 0.6501507462686567 -0.006059701492538094
H -4.89895223880597 2.059650746268657 0.08004029850746197
C 3.9189441004838774 2.000058886212133 -2.790641282330594
O 3.5121503836777945 2.086302911347513 -3.9390559890874948
O 3.2401702218244135 2.2022600739726106 -1.777225195317052
O 5.072353470368329 1.697229772294378 -2.4641604442611276
O -7.817708584975763 3.4964971320348797 3.3047932516340395
H -7.945598077666636 3.0826341775709953 4.171585665930391
H -6.898488963100603 3.802431174928868 3.324833023544594
O 7.277355782202001 -4.150732472535455 -0.7304183121120267
H 6.810875727086427 -4.370248411545836 0.09005500713715131
H 7.926725776994719 -3.4845246555530967 -0.45940595306819
O -6.533552413261288 3.139071352388297 7.747747332252592
H -6.555436347083419 3.3185949434002877 6.795770583266237
H -7.034049834986874 3.872473070748396 8.13580170299527
O -6.035350905813 -7.46191147462619 3.9075893769077075
H -5.893255146768427 -6.883094395350009 3.14355603934989
H -6.020823064174744 -6.857619195316382 4.664941162595105
O 1.66521112052235 -3.819997811557771 -7.645185857371965
H 2.133289293844541 -3.95401402492495 -8.482986451256982
H 1.180893584262971 -4.64872688103366 -7.512496001779041
O 2.089319681833799 4.078513516440566 -3.984605657605861
H 2.0072323243750985 4.021794680749274 -3.0207529736736776
H 1.2377423117593551 3.751701657852086 -4.3116713026422
O 0.4000351495297485 -3.638320650133445 8.94382913201039
H 0.28228798906738195 -4.498793724389108 8.51407449086726
H 0.6961653040531557 -3.862285774804596 9.838875778176373
O 6.715171967199999 -5.634855441693762 -2.49223081170062
H 6.792592568009973 -6.03054010523773 -3.3733704456442544
H 7.190316377988491 -6.252133061600227 -1.9158905709061163
O 3.7798792912570103 9.002723787597768 -4.339904196069176
H 3.8528126928807542 8.652761596105103 -3.4392519100268646
H 4.695681330970225 9.195852725239039 -4.590842000719393
O 0.5138034351053862 1.9376372030267555 -7.094225321778623
H 0.8928387392427716 1.3038931921352122 -7.721655097750867
H 0.004974954317771618 1.3851078111108537 -6.4820433288154105
O 0.4307054410741884 8.684946649025882 4.666261102486759
H 1.2168332475263544 8.780257015279567 5.224728973458131
H -0.28977669642488957 8.543159680941653 5.298529945247685
O 3.639131510937154 5.159028892985376 -8.318204987300893
H 3.971105652365849 4.481954859179494 -7.709656485479953
H 2.761907542677621 5.37747225003173 -7.969317392833396
O 3.43775257550441 -5.801225979973079 0.40259058054384744
H 3.2163666289118726 -5.740493620957473 -0.5388270739112444
H 3.2213074965956667 -4.92333317435893 0.751040998777354
O -4.041119792144025 7.122747484356492 -0.5271279885184609
H -4.144671689974585 7.068836850033472 -1.4890728959131516
H -3.082866594640812 7.073857943432465 -0.3917671132143113
O 0.26144117984347837 -6.247148716356731 4.85974343374719
H 0.10694296881337517 -6.936574364045815 5.522910031214966
H -0.5502243183234412 -6.245422616596502 4.330443817305743
O 5.730946294366329 -0.47462693995122907 6.134967698008345
H 5.6970177346686555 -0.5250679134274958 7.102062273492879
H 6.318645287169996 0.27572556924684744 5.9602022835302355
O 0.16897489608090904 9.756692749728057 -5.917577676313975
H -0.21513086454082886 8.878431606669093 -6.0593080052840165
H 0.7684106864435511 9.874162433822798 -6.669800748846981
O -2.4122054177697185 -9.063215980721832 5.747813432884593
H -2.6724344186649693 -8.22468892373833 6.157838552480511
H -2.7897205669006695 -9.737003085778678 6.333010146422657
O -9.665544358363169 2.0344307617379895 -7.1256954197831925
H -9.83187148224123 2.25335086704267 -6.1965147956546875
H -10.399488069465225 2.453312409849893 -7.599854399566134
O -0.40845458249856237 2.2347360908007095 6.511982105459121
H -0.6226843060510829 2.283851559419955 5.568233911718373
H -0.13124555511412395 3.1357425803984413 6.736268540936939
C -9.217604494241733 16.28564624278142 -8.87769642659141
O -9.917681764770615 17.219450498461633 -8.611764697265345
O -8.517527223712852 15.351841987101206 -9.143628155917476
O -16.326686352441648 10.301420622401228 6.429162002884992
H -16.593538809393525 10.867102265050649 7.1692710504504165
H -17.14454952895987 10.173743539344255 5.925415706365027
O 0.6503693485344518 12.775038867727304 12.792684880633464
H 0.7840422973138507 12.851500268941548 11.83599655427583
H 1.3808380979775854 12.210289387401042 13.086683817465225
O 9.032575676377753 2.995355484395849 -2.7637221862167065
H 9.616001287793962 3.7024098123672804 -2.449626515854165
H 9.181682811855623 2.272587870019996 -2.135760418225197
O -16.367115186956088 11.599990950783939 -7.337341154347845
H -15.668350716320738 11.777452102983752 -6.68988218967316
H -16.59955482124132 12.477161511856192 -7.677202254654335
O -9.553432511387598 -16.54387955883338 4.9119209965642465
H -9.34435853714805 -16.726999761386658 5.840211049086908
H -8.856479166569674 -17.00344635035636 4.419969430273033
O -13.742841431824807 4.970761432429889 -6.63300773743693
H -14.145917260564746 5.015053957894143 -7.51308466894554
H -14.267876025993726 4.3017809218498515 -6.168501875590218
O -5.423705557394463 9.364324850055114 11.238604136901216
H -5.181143709548153 10.291949913614 11.378757083094865
H -5.4495173989099275 8.991498100311142 12.13263764176159
O -10.231936289396568 1.9986997613997577 6.45159079996202
H -9.74612616247175 2.2808338861053006 7.2411199084526
H -10.281881265566991 2.7998368325324305 5.908776985738118
O -8.27508859722755 11.4705705004621 6.082476407840891
H -7.568664938504965 11.077200751276084 5.548441566540875
H -8.67148520423699 12.131968017643935 5.495633159164464
O 0.5395249831206863 3.3579990724851276 -18.42075224228792
H 1.1714576469900106 3.318751604227878 -17.687207355133484
H -0.24846771501161213 3.764023030825913 -18.029377744851693
O -2.5651986288120874 13.721616046997607 -17.892539614883148
H -2.123514888055583 12.867878860878331 -18.01507796434359
H -1.8412713765826485 14.36528034107257 -17.916779134525896
O 10.6483187579503 1.5837737837044208 16.382294905815613
H 11.338993046896071 0.9726988551696634 16.6798244257048
H 11.080470562323061 2.106350652547056 15.690109830544563
O -2.8352023139655715 -18.579623403553477 -1.8035077407624351
H -3.478327002420687 -18.85897461335806 -2.4723282649542577
H -2.2053984430080558 -19.314918719379406 -1.7628896788764514
O -1.8619697406958942 -4.405576825195667 -11.997867852470407
H -2.5266306678527855 -4.056185973005044 -12.610337640473418
H -1.2703809589731865 -4.922955576811969 -12.564704588238122
O 5.268723136787226 -9.15751063849635 7.19213136446262
H 5.106460791551742 -9.758944864699764 6.449894771609789
H 5.194299942369135 -9.725152243878805 7.973928102925652
O -3.059263849563994 -5.134777582384053 -17.476496465105402
H -2.2296080848072553 -5.623789433642424 -17.58376285422506
H -2.8788622311310483 -4.275148249291263 -17.885708647296035
O -17.059854976616883 4.081789663686446 2.1114575064475525
H -16.511759643358502 4.868316942135534 2.2526442721724513
H -16.429116594864226 3.4061002660534117 1.8206399072374193
O -7.492955502920543 -4.358441700519986 -5.459170442878568
H -7.6348594277707 -4.635082226279174 -4.541401053260565
H -7.824770373454165 -5.103616313258486 -5.982215022740342
O -3.3099909488657557 -8.435918034367512 -4.598852572744371
H -3.246961274938446 -9.045264959153688 -5.349646114510848
H -2.4268887784939333 -8.462706916122894 -4.200889186490218
O -6.069446678788404 10.716410944565636 -1.9625183558842663
H -5.9315580037886955 10.895730743582217 -1.0202877684549052
H -5.394728432616562 10.054485196485654 -2.1759932645071403