194

C -5.0710522388059704 1.0783507462686561 0.47044029850746183
C -3.8153522388059704 0.1782507462686569 0.19534029850746193
C -4.11845223880597 -1.3219492537313435 0.5608402985074619
C -2.96945223880597 -2.3874492537313436 0.7034402985074619
C -2.52015223880597 0.7359507462686565 0.7384402985074618
C -2.20305223880597 0.7852507462686571 2.097440298507462
C -1.5755522388059702 1.205650746268656 -0.18965970149253808
C -0.9533522388059701 1.2695507462686564 2.508640298507462
H -2.91125223880597 0.4298507462686567 2.840840298507462
C -0.32655223880597006 1.6562507462686575 0.21554029850746192
H -1.7850522388059702 1.178550746268657 -1.2573597014925382
C 0.004447761194029898 1.6956507462686563 1.569740298507462
H -0.7158522388059702 1.2676507462686573 3.5705402985074617
H 0.3943477611940298 1.9193507462686572 -0.5551597014925382
C -1.76045223880597 -2.1592492537313435 -0.1734597014925381
C -0.5287522388059701 -1.936549253731343 0.464840298507462
C -1.8068522388059702 -2.121249253731343 -1.5681597014925381
C 0.6114477611940299 -1.614449253731343 -0.2582597014925381
H -0.4544522388059702 -1.954049253731343 1.5506402985074619
C -0.6479522388059701 -1.8270492537313432 -2.2998597014925384
H -2.74345223880597 -2.290549253731343 -2.092259701492538
C 0.5698477611940298 -1.5506492537313434 -1.6506597014925382
H 1.5072477611940298 -1.351949253731343 0.2991402985074618
H -0.7173522388059701 -1.7640492537313435 -3.3840597014925375
C 1.7791477611940298 -1.082849253731343 -2.4255597014925376
H 1.4739477611940297 -0.9102492537313429 -3.464259701492538
H 2.1252477611940295 -0.1337492537313434 -2.0010597014925384
C 1.3965477611940298 2.0964507462686566 1.997440298507462
H 1.51704776119403 1.8448507462686567 3.057640298507462
H 2.1256477611940294 1.5207507462686571 1.4165402985074618
C 3.94864776119403 -1.4275492537313434 -3.522959701492538
H 4.81734776119403 -2.087049253731343 -3.615159701492538
H 3.4305477611940303 -1.3641492537313429 -4.484459701492538
H 4.26984776119403 -0.441449253731343 -3.176459701492538
C 2.60904776119403 -3.4296492537313434 -2.8992597014925376
H 1.9825477611940296 -3.869549253731343 -2.119359701492538
H 2.06294776119403 -3.373349253731343 -3.845759701492538
H 3.5215477611940305 -4.019849253731343 -3.0234597014925377
C 3.7281477611940304 -2.060049253731343 -1.156659701492538
H 3.9048477611940298 -1.032549253731343 -0.8295597014925382
H 3.12924776119403 -2.623249253731343 -0.4404597014925382
H 4.68244776119403 -2.5769492537313434 -1.3005597014925383
C 3.1110477611940297 3.755250746268656 2.588740298507462
H 3.40124776119403 4.809350746268656 2.534540298507462
H 2.9823477611940303 3.461750746268656 3.634840298507462
H 3.86514776119403 3.1392507462686563 2.091540298507462
C 1.99744776119403 3.9574507462686572 0.40494029850746194
H 2.67914776119403 3.230350746268657 -0.04295970149253803
H 1.03214776119403 3.981150746268657 -0.10175970149253821
H 2.4399477611940297 4.958250746268657 0.368240298507462
C 0.7418477611940297 4.4992507462686575 2.475440298507462
H -0.18475223880597014 4.424250746268656 1.901240298507462
H 0.57844776119403 4.189650746268656 3.511940298507462
H 1.1210477611940297 5.524350746268658 2.4432402985074617
N 3.00114776119403 -2.025349253731343 -2.490159701492538
N 1.7831477611940298 3.586450746268657 1.862540298507462
C -3.55075223880597 -3.8435492537313434 0.6444402985074619
H -2.62515223880597 -2.2736492537313433 1.7424402985074618
H -4.67195223880597 -1.3478492537313436 1.5102402985074619
H -4.83415223880597 -1.6757492537313432 -0.1945597014925382
H -3.7169522388059697 0.17335074626865676 -0.900559701492538
H -3.9132522388059705 -4.043149253731343 -0.34225970149253815
H -4.35435223880597 -3.9354492537313432 1.3449402985074619
H -2.78115223880597 -4.545049253731343 0.8904402985074619
H -5.24235223880597 1.138950746268657 1.5249402985074618
H -5.92805223880597 0.6501507462686567 -0.006059701492538094
H -4.89895223880597 2.059650746268657 0.08004029850746197
C 0.08785648173551008 1.5748247982198391 -3.8510362593995593
O 0.10175414893598189 2.6632914970057664 -4.404951956126462
O -0.6503622529632886 0.6304750296787144 -4.154133732988551
O 0.8098704958999845 1.2492209213072178 -2.9016542166530304
O -4.928950889016116 7.427823263391647 -2.603644148393338
H -4.825002706605398 7.465720983897503 -3.5663101834511712
H -4.545256362899471 6.571944793297304 -2.360307962516501
O -6.900649795933861 -4.7457120200039515 5.123461196663094
H -6.30228771976812 -3.988051422950529 5.206410593160447
H -6.856042051153874 -4.977392985952181 4.1836229002402785
O -10.00438838576002 -1.7204973034781328 -1.0155590606027185
H -9.747017489654361 -2.1495108311429876 -0.18569463082016124
H -10.96920830357366 -1.8082805511703857 -1.0350159851973473
O 2.058921812528866 6.605772837136467 4.07080553175339
H 1.8335596108012464 6.7977618721424555 4.993475269725731
H 2.7842254968165987 5.966435602664227 4.135182627649583
O 7.067128163316053 -1.068974688826616 -1.1784866515539623
H 7.527355549035031 -1.4049987666047086 -0.3947482197492821
H 6.778343369526144 -1.869665379428441 -1.6415845949301888
O -2.9024996092079287 -1.1227594020940852 -5.214748203592218
H -2.7335796177904603 -1.4751142810007134 -6.101472192615984
H -2.62746561402422 -1.8384372213975866 -4.622191451246697
O -0.8163893810221736 -8.974504055893574 -2.4272240960848945
H -1.1899482331926958 -9.25354062732658 -3.2766708175853996
H 0.003064020266363876 -9.486239372063093 -2.3524910137081534
O -1.0971736422023972 8.339101861980163 -6.141670914147584
H -1.0945693691754004 8.288250652685562 -5.174006339423842
H -1.4491756543862442 7.480347234334321 -6.4202333258534185
O 1.416675051746223 -1.926153941136186 -11.489019436377056
H 1.6172985779356237 -1.277916614575846 -12.180760664072238
H 1.6058656324285865 -2.779955559301837 -11.906382186630106
O -3.595025634897617 9.124792733873305 6.080428690884085
H -4.272502517895238 8.797566496229756 5.4697606801765675
H -3.5498495924394016 8.442699596160551 6.767211058867556
O 4.607832494862699 -2.64716921557177 -7.236207086132507
H 4.552626663756635 -2.6514873931303975 -6.268787308344983
H 3.890990500222557 -2.054943004653702 -7.50891134741562
O -7.596714167771567 -0.935936509768788 4.775301196731471
H -6.986527601519223 -1.5486489209146432 4.33801043248758
H -7.083820957158308 -0.5859141842625668 5.519200968511273
O 0.7399614427854218 -5.902165053357973 -5.399529259983866
H 0.9773915482129536 -5.931198027288981 -6.338545441080546
H 1.4214003025854538 -5.338729871202493 -5.0031155617293095
O -3.6205758279577047 1.7619426011770871 5.052658748369694
H -3.4478512403985646 2.0213268355932135 5.9701844388486505
H -3.0023680745061614 1.0325480422312276 4.895290723496247
O -0.08604824385398263 -9.696614475305687 0.2578143395281252
H -0.3113375789022532 -9.131506360159253 1.012045663863806
H 0.8218761118010389 -9.440475062402093 0.036391870329953835
O 2.8037877400536235 1.198461061664475 -8.332211203658776
H 2.90460347869418 1.0708394327994963 -7.376954032218431
H 3.633988003037543 0.8624830042891203 -8.702141214071169
O -1.061866517123181 -2.5273438224868974 9.401768141475362
H -1.2341517086708924 -2.0432229281363266 10.22329849960376
H -0.14807764064506124 -2.8348875168105927 9.498560236227922
O -1.388523030149621 -3.7007704625736833 -7.066329546617352
H -1.3467991254863287 -3.2610623858218863 -7.928816230525507
H -0.5919984245955532 -3.3933189015170573 -6.608089397076983
O 4.6632567651061905 -8.138343775362944 -7.046960225516648
H 3.7832070542188303 -7.910059915169178 -6.7117493330293865
H 5.159517683707313 -7.3083037020684 -6.985964146180726
O -1.8624220162643081 -3.5939897276214516 7.4736934346009
H -1.7005294245619023 -4.115193048324336 6.673002954989606
H -1.4233704474053184 -2.7487392482129644 7.295515738908701
C -12.52743082298079 -9.3479843943709 6.758599317760231
O -11.83602601098643 -9.176624589361047 5.796615190823601
O -13.218835634975148 -9.519344199380754 7.720583444696859
O -6.829919618898686 13.683737754365245 -7.518788724640855
H -6.772872303325244 13.683968999783854 -6.551466179048424
H -6.146011434178794 13.054611100530172 -7.79343612151078
O 0.6774472989680802 13.10628101267862 3.535506751579635
H -0.2294135938109234 12.764863500309982 3.5333249413038565
H 0.8180688991023815 13.402891216260972 2.6237996182267667
O -6.116504589715941 0.08841529933948777 -19.10338170295522
H -6.697571805782745 0.07222632387940742 -18.328097133015945
H -6.584825737852014 0.654601308257285 -19.735102091904515
O -12.704581971063886 -17.519980526341268 -4.973408366548261
H -12.930803869529576 -16.888921159864406 -4.273726234765258
H -11.737309259257254 -17.48316879765227 -5.0180216148627474
O -7.054821285755018 11.783037669033675 -10.70618099041402
H -6.131770239718209 11.878606138028198 -10.427235133580844
H -7.3726184132775066 12.69544266876546 -10.780235338719123
O 10.688775460074805 2.8679094889344605 1.1554879823520925
H 10.838972988360368 3.1079185128494653 0.22877134397967458
H 11.38082402757602 3.3463041275548147 1.636288662737235
O 17.67038703132392 11.241191233615302 6.58800272939285
H 17.727139082418198 11.308548993663498 7.552994695037066
H 17.779594638953014 10.294470255108312 6.4126316040879825
O -9.773849608360043 -5.5491348919778405 6.351975855362284
H -10.71691868896704 -5.4209702707128775 6.169871775344603
H -9.479258391531816 -4.685983003616932 6.679308678169072
O -12.564964773823421 -6.902180895914558 1.0984036580236953
H -12.576448247342778 -6.0816390481965 1.6137157604231707
H -12.416320060484983 -7.592946855430386 1.7615092926481566
O 0.414783038317446 19.045013997268327 -9.90069972400716
H 0.6276040738545898 19.10084927422771 -10.84439299280787
H 1.2686002791720492 19.171605807492377 -9.460321957647828
O 7.434258234127119 7.831579297947188 -15.827691399093
H 7.376685184124029 7.601097953170073 -16.767122636876305
H 8.360529849822445 7.659723665434321 -15.60086882563354
O 6.418636769961267 -14.74707891720619 -6.135323700368634
H 6.094987241754624 -14.37707271301305 -6.970376841581936
H 7.118210475457346 -15.360259884305135 -6.406557320088034
O 6.252411984025292 2.4760771682181426 -5.828931667897946
H 6.041193862175466 1.5652242974628279 -5.5745671465137026
H 6.962312430758009 2.7303999160110224 -5.220389771243519
O -3.6432668234940504 12.345251360994196 14.648003521641087
H -3.7399751141749284 13.12343700896207 14.078756685277105
H -4.016383239428866 12.628038505278795 15.496400548679325
O -8.468344159202609 -14.714239643524412 5.155965192300217
H -7.919027036290752 -14.449231816112023 4.402978534525985
H -8.482542424300739 -13.928778261115117 5.72324886940708
O -0.9703835174937578 12.713050611467043 6.553155839941924
H -0.974043814991514 13.573025732093036 6.106617206645165
H -1.2793240967304509 12.095168636725809 5.873641654592738
O 5.526158611725973 -10.102157067367598 9.045442594713622
H 5.484291803158337 -9.420532757680991 9.73290374102272
H 5.0988825210156135 -9.689179693421053 8.2800363135691
O 1.9492972025255628 7.00217576070022 -18.319210313651606
H 2.6382495511910644 6.993456974650604 -19.000558976920356
H 1.1555626112080228 6.698957085239309 -18.78504910303878
O 13.103412529442823 -2.8090197015051714 4.105497113599573
H 12.916560491999624 -2.786891177241687 5.056056949389644
H 14.066032791963837 -2.9095772436462157 4.058461433498978
O -15.893231195989777 10.952981108466851 -1.4869718014688171
H -15.825512793109004 10.331642329149968 -0.746485679972754
H -16.288784977966824 10.42715046612885 -2.19830947475912