194

C -5.0710522388059704 1.0783507462686561 0.47044029850746183
C -3.8153522388059704 0.1782507462686569 0.19534029850746193
C -4.11845223880597 -1.3219492537313435 0.5608402985074619
C -2.96945223880597 -2.3874492537313436 0.7034402985074619
C -2.52015223880597 0.7359507462686565 0.7384402985074618
C -2.20305223880597 0.7852507462686571 2.097440298507462
C -1.5755522388059702 1.205650746268656 -0.18965970149253808
C -0.9533522388059701 1.2695507462686564 2.508640298507462
H -2.91125223880597 0.4298507462686567 2.840840298507462
C -0.32655223880597006 1.6562507462686575 0.21554029850746192
H -1.7850522388059702 1.178550746268657 -1.2573597014925382
C 0.004447761194029898 1.6956507462686563 1.569740298507462
H -0.7158522388059702 1.2676507462686573 3.5705402985074617
H 0.3943477611940298 1.9193507462686572 -0.5551597014925382
C -1.76045223880597 -2.1592492537313435 -0.1734597014925381
C -0.5287522388059701 -1.936549253731343 0.464840298507462
C -1.8068522388059702 -2.121249253731343 -1.5681597014925381
C 0.6114477611940299 -1.614449253731343 -0.2582597014925381
H -0.4544522388059702 -1.954049253731343 1.5506402985074619
C -0.6479522388059701 -1.8270492537313432 -2.2998597014925384
H -2.74345223880597 -2.290549253731343 -2.092259701492538
C 0.5698477611940298 -1.5506492537313434 -1.6506597014925382
H 1.5072477611940298 -1.351949253731343 0.2991402985074618
H -0.7173522388059701 -1.7640492537313435 -3.3840597014925375
C 1.7791477611940298 -1.082849253731343 -2.4255597014925376
H 1.4739477611940297 -0.9102492537313429 -3.464259701492538
H 2.1252477611940295 -0.1337492537313434 -2.0010597014925384
C 1.3965477611940298 2.0964507462686566 1.997440298507462
H 1.51704776119403 1.8448507462686567 3.057640298507462
H 2.1256477611940294 1.5207507462686571 1.4165402985074618
C 3.94864776119403 -1.4275492537313434 -3.522959701492538
H 4.81734776119403 -2.087049253731343 -3.615159701492538
H 3.4305477611940303 -1.3641492537313429 -4.484459701492538
H 4.26984776119403 -0.441449253731343 -3.176459701492538
C 2.60904776119403 -3.4296492537313434 -2.8992597014925376
H 1.9825477611940296 -3.869549253731343 -2.119359701492538
H 2.06294776119403 -3.373349253731343 -3.845759701492538
H 3.5215477611940305 -4.019849253731343 -3.0234597014925377
C 3.7281477611940304 -2.060049253731343 -1.156659701492538
H 3.9048477611940298 -1.032549253731343 -0.8295597014925382
H 3.12924776119403 -2.623249253731343 -0.4404597014925382
H 4.68244776119403 -2.5769492537313434 -1.3005597014925383
C 3.1110477611940297 3.755250746268656 2.588740298507462
H 3.40124776119403 4.809350746268656 2.534540298507462
H 2.9823477611940303 3.461750746268656 3.634840298507462
H 3.86514776119403 3.1392507462686563 2.091540298507462
C 1.99744776119403 3.9574507462686572 0.40494029850746194
H 2.67914776119403 3.230350746268657 -0.04295970149253803
H 1.03214776119403 3.981150746268657 -0.10175970149253821
H 2.4399477611940297 4.958250746268657 0.368240298507462
C 0.7418477611940297 4.4992507462686575 2.475440298507462
H -0.18475223880597014 4.424250746268656 1.901240298507462
H 0.57844776119403 4.189650746268656 3.511940298507462
H 1.1210477611940297 5.524350746268658 2.4432402985074617
N 3.00114776119403 -2.025349253731343 -2.490159701492538
N 1.7831477611940298 3.586450746268657 1.862540298507462
C -3.55075223880597 -3.8435492537313434 0.6444402985074619
H -2.62515223880597 -2.2736492537313433 1.7424402985074618
H -4.67195223880597 -1.3478492537313436 1.5102402985074619
H -4.83415223880597 -1.6757492537313432 -0.1945597014925382
H -3.7169522388059697 0.17335074626865676 -0.900559701492538
H -3.9132522388059705 -4.043149253731343 -0.34225970149253815
H -4.35435223880597 -3.9354492537313432 1.3449402985074619
H -2.78115223880597 -4.545049253731343 0.8904402985074619
H -5.24235223880597 1.138950746268657 1.5249402985074618
H -5.92805223880597 0.6501507462686567 -0.006059701492538094
H -4.89895223880597 2.059650746268657 0.08004029850746197
C 1.5999976067350343 -0.8221809748427764 4.348570257076456
O 2.761086297331833 -0.4470047559002437 4.40234158687399
O 0.7412635649942537 -0.3740696713733036 3.5801930259207992
O 1.1040452004205332 -1.7080348632737106 5.054220654527382
O 0.6805603853314912 2.889888212701426 -9.196985837580225
H 0.8874341159370283 2.5748068538558853 -10.08967523137484
H -0.15975686177975046 2.456565724553982 -8.984711275342796
O -7.505717422082607 2.514129800648953 0.527960360234486
H -8.038369008596122 3.2107941427855096 0.11576084703720646
H -6.945774465416227 2.9902906917295153 1.1593846513296875
O 4.232974068986627 -6.020108529532559 0.6969710471609167
H 4.518522854659099 -5.594285561735656 -0.1252844167902908
H 5.062550521497487 -6.252925683357869 1.1403230818062735
O 7.847921200839863 0.110388108022907 -2.0053558556175908
H 8.114186790837927 -0.5689267069309145 -1.3677028350278349
H 7.601134655250517 -0.3938473208897517 -2.7951691104097236
O 3.3673250736062066 2.4895409111990916 7.083494386019756
H 3.3605694934982275 2.0093015156608827 6.241893624369374
H 2.479830525908776 2.8743282932962604 7.140538602958372
O -0.2727480218330953 5.7546416839501235 -5.846858337823335
H -0.22682233045611877 5.741706956324967 -6.81468625671843
H 0.6554068774789594 5.755942246377156 -5.5684903516604125
O -2.2208408790823713 1.7801962899911006 8.469965669482354
H -2.292204040833842 1.7149966912262191 7.5057957319891075
H -1.4388720097899266 1.249154833467782 8.683229832461244
O -1.6179993889527502 -5.250534257338901 -1.586127193250992
H -1.0045462332352837 -5.441605828369028 -0.8607760800758884
H -1.0982149202111282 -5.4265121533393295 -2.384762172746788
O -4.6483646195623525 6.623723894756004 -2.1944109945382593
H -5.215438261454683 6.332167281424558 -1.464760679117462
H -4.645422679642399 7.589623230442974 -2.1170045180070307
O 6.489899488081285 4.108771132962548 -2.1843479335598146
H 6.552198940414695 4.974959534102872 -1.7544598215249203
H 7.349962881653723 3.999920862463767 -2.6172503728564807
O 6.981706902198983 -6.154818038321805 -1.6299719211017307
H 7.104216946962661 -6.027370134627824 -2.5827130599616064
H 7.4224615417937585 -5.388710215896406 -1.232761527992119
O 4.003825017587248 -0.5793892960350475 9.75562972965663
H 3.12105704772621 -0.1799640028413485 9.76777482926712
H 4.228787765881222 -0.6785233177041481 10.69292698876269
O 3.987803740388153 7.550445152517927 8.181183949177276
H 4.488125193369352 7.248466444103097 8.954135862462245
H 4.200525328475903 8.493734066293827 8.118594050560102
O -2.472243372195889 1.5498028331562859 -9.645826837046442
H -1.6097765086198017 1.118487361635613 -9.550510363338445
H -2.791114340849889 1.2471877032857446 -10.509370311819481
O -4.511295448904997 -3.7082810638638612 -7.166901450933232
H -5.4245960096660895 -3.9267278197739017 -7.405921235565918
H -4.110903895803652 -4.566866265440888 -6.96323505670476
O -4.553207718290286 7.268593552082213 10.31880574802022
H -3.9860672183625003 7.551270774088067 11.051890053131654
H -4.05034197783667 6.557069258287994 9.894752484008876
O -4.76237887693018 -2.043951133466416 8.149057369611226
H -4.997328599140453 -1.5858342179074416 8.969968373686605
H -5.189298891319293 -2.909706104509652 8.233730716822281
O 1.6023044488154055 3.054021114847011 -2.5837789443667116
H 2.0434500734315018 2.756133680505909 -3.393483193610688
H 1.4386283196760166 3.9963154086691746 -2.739514402372059
O -5.025828896400808 3.6688867553906634 -5.785333643233785
H -5.186954418140266 2.757489114508137 -5.498348864302999
H -4.249417323971896 3.5992351871294157 -6.360916542160789
O 4.329329881765739 -2.5302533766923947 -11.03618195337038
H 4.693488607225713 -2.1434287545621857 -10.225797790590041
H 3.376995372134706 -2.365286210276177 -10.966851151626699
C -10.076023741271156 -15.399161853442468 -1.5295619558626559
O -9.553102908745219 -15.881983344861538 -0.5671402875518039
O -10.598944573797093 -14.916340362023394 -2.4919836241735087
O -4.935462104664057 -7.0506439985216485 -8.437477377916151
H -5.356690614074195 -7.119319971057948 -7.567524786934142
H -5.667161626042717 -6.836471309656443 -9.035564172669627
O -17.909477768519196 1.4207404862422202 0.7638023389464763
H -18.350058284035015 0.7157344949353934 0.2659843817881473
H -17.74873063820069 1.0271377980708163 1.6345487017058105
O -3.481095908793793 -14.399269006410528 -7.170073558766008
H -2.9399552424636566 -14.018368146467438 -6.462225643576316
H -2.9302584218394783 -15.111419364164277 -7.528377724548461
O -13.601394947770128 10.326993612989941 -6.934912391324731
H -14.443260676825316 10.022040224431134 -7.305361958673486
H -12.965054148660048 9.650874607520056 -7.2122126295690485
O 16.5792514759986 0.9080712097273089 0.3855454884191989
H 17.129839686526505 0.7707657728878674 -0.39992710584619573
H 16.71912178299558 0.10692148837330429 0.9123826221664064
O 18.495211062245062 -7.70931558773264 -11.655940077133554
H 18.61768548394521 -6.768776511263386 -11.457562612275323
H 18.633810132994487 -8.148344305426718 -10.803293592987114
O 14.706466733758345 17.022677000433905 -7.618383168214593
H 14.078931521898655 16.99407758909276 -6.880583067613383
H 14.388128550238624 17.754344464970767 -8.168188103215694
O -16.644266492812875 10.664868953159129 4.18111643122746
H -16.221462798686662 9.86450195572985 4.526973428495507
H -17.38947828652652 10.814312575381486 4.782188748496486
O 13.380647322400591 -4.015956024137177 7.672283836145181
H 13.144097833578902 -3.5603695475152044 6.850424566831162
H 12.694143252977948 -3.74081388342625 8.298359637762811
O -12.221966117525156 -13.827732774579836 -9.019839356673085
H -13.156148367416847 -13.848007355392523 -9.276471042674977
H -11.82999136183019 -14.569766250399365 -9.5043020032838
O -6.300216038564422 4.577642582664956 -18.474041546706356
H -5.512588801608739 4.866760323681072 -18.95883183573378
H -6.176964762623019 3.621507808204777 -18.376177557686923
O -0.9175746782821181 -1.2786766789552302 -12.831028309419164
H -0.5737266376630425 -1.5183419466707382 -13.704696691194123
H -0.5341702622177977 -1.9425805593247107 -12.2384115397672
O 8.925056538744848 10.752306215708098 0.9544221500454122
H 9.198238530439783 10.310000591794633 1.7721658087601155
H 9.634426177380174 11.390369163079415 0.7852112305566972
O 2.4354499041671014 17.842355727788537 -5.026032629949977
H 1.8976353949224425 17.107898972379132 -4.693923935424485
H 3.326419108445636 17.646493226238952 -4.69927017523093
O -7.309179731629334 -5.0286978293374744 15.1368627729989
H -8.135836596900393 -4.801069025987995 14.685430705146036
H -6.637667620711262 -4.506330985947987 14.673002546079566
O -12.635029078835377 3.47151120606964 -5.1416328411405665
H -13.334466148447497 3.3145445516372227 -4.489623169472496
H -12.887286700074114 2.91536298335742 -5.893980627208294
O 7.810877304120188 13.53855781469316 8.727237794485834
H 7.624183266921956 13.48460960734489 7.777921048452914
H 7.444051158536402 14.396224815697924 8.989550277230443
O 16.049965563304905 -5.138213053898744 2.211684918664716
H 16.99598206288767 -4.945725820000174 2.2951642826012977
H 15.94377143180411 -5.391575140722851 1.2824419990280234
O -10.532570472584085 -9.370264531834543 8.744248395000636
H -10.42379917850807 -8.762393297760303 9.490993816995367
H -9.774644045967705 -9.969499040135467 8.817919829070261
O 9.1765787186209 -3.112875283353605 -8.61856341323104
H 9.813716229395036 -2.92442181560899 -9.323906194975894
H 8.315070269862169 -3.043563693759975 -9.05669700081059