194

C -5.0710522388059704 1.0783507462686561 0.47044029850746183
C -3.8153522388059704 0.1782507462686569 0.19534029850746193
C -4.11845223880597 -1.3219492537313435 0.5608402985074619
C -2.96945223880597 -2.3874492537313436 0.7034402985074619
C -2.52015223880597 0.7359507462686565 0.7384402985074618
C -2.20305223880597 0.7852507462686571 2.097440298507462
C -1.5755522388059702 1.205650746268656 -0.18965970149253808
C -0.9533522388059701 1.2695507462686564 2.508640298507462
H -2.91125223880597 0.4298507462686567 2.840840298507462
C -0.32655223880597006 1.6562507462686575 0.21554029850746192
H -1.7850522388059702 1.178550746268657 -1.2573597014925382
C 0.004447761194029898 1.6956507462686563 1.569740298507462
H -0.7158522388059702 1.2676507462686573 3.5705402985074617
H 0.3943477611940298 1.9193507462686572 -0.5551597014925382
C -1.76045223880597 -2.1592492537313435 -0.1734597014925381
C -0.5287522388059701 -1.936549253731343 0.464840298507462
C -1.8068522388059702 -2.121249253731343 -1.5681597014925381
C 0.6114477611940299 -1.614449253731343 -0.2582597014925381
H -0.4544522388059702 -1.954049253731343 1.5506402985074619
C -0.6479522388059701 -1.8270492537313432 -2.2998597014925384
H -2.74345223880597 -2.290549253731343 -2.092259701492538
C 0.5698477611940298 -1.5506492537313434 -1.6506597014925382
H 1.5072477611940298 -1.351949253731343 0.2991402985074618
H -0.7173522388059701 -1.7640492537313435 -3.3840597014925375
C 1.7791477611940298 -1.082849253731343 -2.4255597014925376
H 1.4739477611940297 -0.9102492537313429 -3.464259701492538
H 2.1252477611940295 -0.1337492537313434 -2.0010597014925384
C 1.3965477611940298 2.0964507462686566 1.997440298507462
H 1.51704776119403 1.8448507462686567 3.057640298507462
H 2.1256477611940294 1.5207507462686571 1.4165402985074618
C 3.94864776119403 -1.4275492537313434 -3.522959701492538
H 4.81734776119403 -2.087049253731343 -3.615159701492538
H 3.4305477611940303 -1.3641492537313429 -4.484459701492538
H 4.26984776119403 -0.441449253731343 -3.176459701492538
C 2.60904776119403 -3.4296492537313434 -2.8992597014925376
H 1.9825477611940296 -3.869549253731343 -2.119359701492538
H 2.06294776119403 -3.373349253731343 -3.845759701492538
H 3.5215477611940305 -4.019849253731343 -3.0234597014925377
C 3.7281477611940304 -2.060049253731343 -1.156659701492538
H 3.9048477611940298 -1.032549253731343 -0.8295597014925382
H 3.12924776119403 -2.623249253731343 -0.4404597014925382
H 4.68244776119403 -2.5769492537313434 -1.3005597014925383
C 3.1110477611940297 3.755250746268656 2.588740298507462
H 3.40124776119403 4.809350746268656 2.534540298507462
H 2.9823477611940303 3.461750746268656 3.634840298507462
H 3.86514776119403 3.1392507462686563 2.091540298507462
C 1.99744776119403 3.9574507462686572 0.40494029850746194
H 2.67914776119403 3.230350746268657 -0.04295970149253803
H 1.03214776119403 3.981150746268657 -0.10175970149253821
H 2.4399477611940297 4.958250746268657 0.368240298507462
C 0.7418477611940297 4.4992507462686575 2.475440298507462
H -0.18475223880597014 4.424250746268656 1.901240298507462
H 0.57844776119403 4.189650746268656 3.511940298507462
H 1.1210477611940297 5.524350746268658 2.4432402985074617
N 3.00114776119403 -2.025349253731343 -2.490159701492538
N 1.7831477611940298 3.586450746268657 1.862540298507462
C -3.55075223880597 -3.8435492537313434 0.6444402985074619
H -2.62515223880597 -2.2736492537313433 1.7424402985074618
H -4.67195223880597 -1.3478492537313436 1.5102402985074619
H -4.83415223880597 -1.6757492537313432 -0.1945597014925382
H -3.7169522388059697 0.17335074626865676 -0.900559701492538
H -3.9132522388059705 -4.043149253731343 -0.34225970149253815
H -4.35435223880597 -3.9354492537313432 1.3449402985074619
H -2.78115223880597 -4.545049253731343 0.8904402985074619
H -5.24235223880597 1.138950746268657 1.5249402985074618
H -5.92805223880597 0.6501507462686567 -0.006059701492538094
H -4.89895223880597 2.059650746268657 0.08004029850746197
C -0.7253968268520126 2.323920673454989 -3.67195987515697
O -0.4391081027046708 2.9300865946392536 -4.6929286019164715
O -1.6506942894946663 2.6159126711648923 -2.9056722379081066
O -0.13411331909887392 1.3246813908500301 -3.2470445259893133
O 2.1384755006033447 4.784096243173745 -5.890041637035734
H 2.223696507244707 4.194910805793817 -5.125472963006737
H 1.197171037086896 5.013634317744874 -5.904878199514556
O 8.386465176415943 5.12197575584087 0.733292359603015
H 7.551912201054151 5.614394343569822 0.7368451998475805
H 8.166838805699356 4.292409473412991 0.2832412684537462
O 3.620112528566705 1.2451061911400252 6.683355993556701
H 3.4418749343081982 0.2976411779547441 6.58584309347288
H 3.592819575005895 1.5830449757447402 5.77560359513199
O 7.3707538249792535 -1.043824704274366 10.383452678257427
H 7.415143693861373 -0.2621110436205383 10.95434728253025
H 6.483263188093219 -1.399164845284233 10.541742595582281
O -6.076503897527607 -2.759323493252097 6.94614658590622
H -6.550681120800041 -3.561279595379553 6.679707609609241
H -5.394761403365369 -2.6535420093664053 6.265705998036571
O 8.825148217662399 -4.785090049655013 -7.239221203713413
H 7.989568557230609 -5.255436055588028 -7.099404814561226
H 8.606292227271272 -4.110306091253259 -7.899320142701789
O -3.8268497637364294 5.06322416799913 -6.417419008216964
H -4.04560279946429 5.143656544158654 -5.4768632687069765
H -3.8638386511164606 5.97439538348331 -6.745078561081623
O -4.455697754132972 -8.404703504458505 -7.85257800614561
H -5.375726671137705 -8.476387017863065 -8.148171684496612
H -3.97274314581369 -9.00156415516044 -8.443741396628168
O 2.903609252091975 -4.238684388364578 -7.527019293871339
H 2.822136365051212 -4.190032292084712 -8.491364926466218
H 3.7373404221995647 -4.7119805536523565 -7.38614693953979
O -1.022493887212868 -8.141214995488326 1.7105036678785974
H -1.6907148622268402 -7.493574224529942 1.9807064014765552
H -1.2678697708936375 -8.364770270093395 0.800132502252108
O 2.7601209724706064 6.457742946792672 8.691590172907862
H 3.1733763208771317 6.8932060310528245 7.930959331986959
H 2.4656205057229195 5.60379302699516 8.340875254686216
O -5.7207400009365035 -10.579228019516867 1.6110865389746492
H -6.240214868254038 -9.763436968739187 1.6710713753625077
H -4.802145061511358 -10.271163512231889 1.595544952383395
O 7.727150902352513 -3.3068494520950953 -0.023603320999905697
H 8.381794680449659 -2.6970902081615646 0.34869030657959466
H 8.259766811068266 -3.9525140373560688 -0.5118650145850855
O -3.599184457640157 2.835750398064943 4.870631280412615
H -4.274476783178488 2.5954450446927106 4.218556921838625
H -2.857341390800836 3.1522563268090416 4.333551392917033
O -2.035914623168531 -2.1593381937979474 5.331682195012977
H -1.4487378115942227 -1.5923386325176054 4.809473188620584
H -2.406857957393451 -2.774320241235297 4.681174648228267
O 0.3279572881479802 2.2134437059107825 7.471035345110632
H 0.6742167976641302 1.8693401939168366 6.6339783088203506
H 1.0315962158377545 2.7964995515639854 7.7933707055494335
O -4.447155479069861 -5.554310452686552 4.504182688361298
H -5.244946846435548 -5.961509301917741 4.8738925587212645
H -4.410269710657175 -4.684076213971938 4.928792808539091
O 4.50007973896283 -1.8728537780957413 6.269491145127053
H 3.665923494531758 -2.1026477806915493 6.7057770985425265
H 4.242247669440771 -1.6884525966332982 5.353805187769822
O 0.8574605903850641 -1.677135182545114 7.946382220779276
H 0.04620722760113716 -2.178827502656796 7.77567734617773
H 0.5412510978723382 -0.7864745449016532 8.160151090583526
O -1.512992549482072 -3.6005863860853244 9.405588907923834
H -1.8494336317671296 -4.056978244485878 8.619789170944653
H -0.5499422120286006 -3.66061967973954 9.316752004084385
C 8.873494777353665 4.309354218849959 12.517609861820958
O 8.137241606648333 4.452510998466482 11.584734917160006
O 9.609747948058995 4.166197439233436 13.45048480648191
O 3.230520431834598 -2.9540354820996133 -17.0052330257475
H 2.7687789975886545 -2.8439387595046206 -17.85000572681823
H 3.900289432923709 -2.253799007134453 -17.011581931831262
O -1.3917342499476497 -3.746722022241196 -11.282582506481097
H -0.8435137367214471 -3.0300605462021046 -10.92928666085102
H -1.9461410571776145 -4.008934596112013 -10.532356138975182
O 3.841270094811729 -5.8587228874390584 13.786679380361344
H 3.6385772923443005 -6.48328278812439 14.499285804121213
H 4.223635791357896 -5.095846574521748 14.245785195609262
O -5.652196193323433 7.145250953836722 -7.438344247804972
H -5.655970933805582 7.207901075606486 -6.471375752725361
H -6.58889610764694 7.20079511281958 -7.680150081500563
O -5.790074810272945 10.828508106838674 4.740712747560533
H -5.031635628853332 10.43379334685892 5.196714527427311
H -5.87113122577243 11.707959088918473 5.139407833967742
O 15.640676220104353 -4.51714480552884 -1.9662286236321602
H 15.865470032397504 -4.705685343324645 -2.889747743338072
H 15.30790714659427 -3.6073211881714737 -1.9873869154818165
O 11.819962312271963 -16.8121510122414 -2.0055624551162285
H 11.80697354510475 -16.84909083360275 -1.0373506505893118
H 10.92821910245106 -17.091046340253097 -2.2624153080331446
O -13.099659653192672 17.99099111935222 3.3821946027025276
H -13.14730640322282 17.74058288781979 2.447318749076835
H -13.879653583765817 18.550469156634826 3.5146926719996228
O -9.906706299865146 10.289693993719625 0.7805976047022848
H -9.934598317149593 10.28861486501767 1.749198775336024
H -10.786366916936048 9.977211449445246 0.5207634218120194
O -2.4413665886630076 -10.06572609096423 11.56347261529827
H -1.8827369096623476 -9.37578125978578 11.951900689167502
H -2.411553526115914 -9.883098633135216 10.612304734612387
O -2.9457255667961904 -10.574079797403463 -7.150996816755336
H -2.1335991427235177 -10.319074058452376 -7.614019603802523
H -3.1658293856694195 -9.795175229899304 -6.618245535256569
O -14.999621787577732 4.832899892366972 13.07760845911669
H -14.822562403420775 4.797073264167933 12.125592816338774
H -14.147250250076993 5.082648902286458 13.46497151672914
O 9.475869986748325 10.50032857267387 9.774457155094368
H 9.483424769299964 11.207629821447835 10.436752576823514
H 8.700803805568848 10.699567307170614 9.228070583363328
O 11.79580797322372 12.81921108581896 2.683197013395117
H 11.952154629983589 13.682351394487728 2.2714787998422152
H 11.791573960886666 13.010341629843012 3.633151292600489
O 8.12536772207671 -3.7663843909132866 -4.127117575770019
H 7.922328289773207 -4.712460964427578 -4.178900419235091
H 8.794947679009258 -3.632720370037912 -4.814691975451708
O 7.528059679925356 -1.3281248323395545 16.054778728938714
H 6.6887023136053125 -1.2996010168319372 15.57142279336621
H 8.05338479987287 -1.9845640705808258 15.573028805068095
O 3.737955266044977 8.503787225986056 16.538957989975692
H 4.628327307872425 8.75781266819364 16.824748225538883
H 3.7391110728119643 7.53679319705026 16.60127296741477
O -12.76918777493504 -15.167436021813895 -1.8787299546793754
H -12.343545764262306 -15.364778580926034 -2.726581445220937
H -13.65508087382113 -14.863107054211294 -2.126800995157563
O 4.582654885000085 12.997958992851535 9.409792826719363
H 3.93107489827148 12.289832184563263 9.523666885126962
H 5.435041010555809 12.537683333356172 9.433162776146208
O 11.424991776496526 -13.982893496886796 -2.8105285110963525
H 11.339958348027814 -13.312186606660639 -2.1163463013372636
H 10.514558571366923 -14.276424342440203 -2.9651666888085173