194

C -5.0710522388059704 1.0783507462686561 0.47044029850746183
C -3.8153522388059704 0.1782507462686569 0.19534029850746193
C -4.11845223880597 -1.3219492537313435 0.5608402985074619
C -2.96945223880597 -2.3874492537313436 0.7034402985074619
C -2.52015223880597 0.7359507462686565 0.7384402985074618
C -2.20305223880597 0.7852507462686571 2.097440298507462
C -1.5755522388059702 1.205650746268656 -0.18965970149253808
C -0.9533522388059701 1.2695507462686564 2.508640298507462
H -2.91125223880597 0.4298507462686567 2.840840298507462
C -0.32655223880597006 1.6562507462686575 0.21554029850746192
H -1.7850522388059702 1.178550746268657 -1.2573597014925382
C 0.004447761194029898 1.6956507462686563 1.569740298507462
H -0.7158522388059702 1.2676507462686573 3.5705402985074617
H 0.3943477611940298 1.9193507462686572 -0.5551597014925382
C -1.76045223880597 -2.1592492537313435 -0.1734597014925381
C -0.5287522388059701 -1.936549253731343 0.464840298507462
C -1.8068522388059702 -2.121249253731343 -1.5681597014925381
C 0.6114477611940299 -1.614449253731343 -0.2582597014925381
H -0.4544522388059702 -1.954049253731343 1.5506402985074619
C -0.6479522388059701 -1.8270492537313432 -2.2998597014925384
H -2.74345223880597 -2.290549253731343 -2.092259701492538
C 0.5698477611940298 -1.5506492537313434 -1.6506597014925382
H 1.5072477611940298 -1.351949253731343 0.2991402985074618
H -0.7173522388059701 -1.7640492537313435 -3.3840597014925375
C 1.7791477611940298 -1.082849253731343 -2.4255597014925376
H 1.4739477611940297 -0.9102492537313429 -3.464259701492538
H 2.1252477611940295 -0.1337492537313434 -2.0010597014925384
C 1.3965477611940298 2.0964507462686566 1.997440298507462
H 1.51704776119403 1.8448507462686567 3.057640298507462
H 2.1256477611940294 1.5207507462686571 1.4165402985074618
C 3.94864776119403 -1.4275492537313434 -3.522959701492538
H 4.81734776119403 -2.087049253731343 -3.615159701492538
H 3.4305477611940303 -1.3641492537313429 -4.484459701492538
H 4.26984776119403 -0.441449253731343 -3.176459701492538
C 2.60904776119403 -3.4296492537313434 -2.8992597014925376
H 1.9825477611940296 -3.869549253731343 -2.119359701492538
H 2.06294776119403 -3.373349253731343 -3.845759701492538
H 3.5215477611940305 -4.019849253731343 -3.0234597014925377
C 3.7281477611940304 -2.060049253731343 -1.156659701492538
H 3.9048477611940298 -1.032549253731343 -0.8295597014925382
H 3.12924776119403 -2.623249253731343 -0.4404597014925382
H 4.68244776119403 -2.5769492537313434 -1.3005597014925383
C 3.1110477611940297 3.755250746268656 2.588740298507462
H 3.40124776119403 4.809350746268656 2.534540298507462
H 2.9823477611940303 3.461750746268656 3.634840298507462
H 3.86514776119403 3.1392507462686563 2.091540298507462
C 1.99744776119403 3.9574507462686572 0.40494029850746194
H 2.67914776119403 3.230350746268657 -0.04295970149253803
H 1.03214776119403 3.981150746268657 -0.10175970149253821
H 2.4399477611940297 4.958250746268657 0.368240298507462
C 0.7418477611940297 4.4992507462686575 2.475440298507462
H -0.18475223880597014 4.424250746268656 1.901240298507462
H 0.57844776119403 4.189650746268656 3.511940298507462
H 1.1210477611940297 5.524350746268658 2.4432402985074617
N 3.00114776119403 -2.025349253731343 -2.490159701492538
N 1.7831477611940298 3.586450746268657 1.862540298507462
C -3.55075223880597 -3.8435492537313434 0.6444402985074619
H -2.62515223880597 -2.2736492537313433 1.7424402985074618
H -4.67195223880597 -1.3478492537313436 1.5102402985074619
H -4.83415223880597 -1.6757492537313432 -0.1945597014925382
H -3.7169522388059697 0.17335074626865676 -0.900559701492538
H -3.9132522388059705 -4.043149253731343 -0.34225970149253815
H -4.35435223880597 -3.9354492537313432 1.3449402985074619
H -2.78115223880597 -4.545049253731343 0.8904402985074619
H -5.24235223880597 1.138950746268657 1.5249402985074618
H -5.92805223880597 0.6501507462686567 -0.006059701492538094
H -4.89895223880597 2.059650746268657 0.08004029850746197
C -2.1858804146664887 3.5981815489852753 -2.0332642550835933
O -2.9994030295833074 2.6911613775333985 -1.9479949042105493
O -2.2085585012120124 4.4983463484282895 -2.880507137812243
O -1.2140257096493274 3.7562685494852897 -1.2854973682739972
O -1.6520135805870702 7.147172217059828 7.488285423194135
H -2.442729536439373 7.707291225537204 7.489811988915902
H -1.9984247552663263 6.253617222709962 7.345034892899321
O 7.4422571736840615 1.9227752819792787 -6.3785448857140405
H 7.308235761433211 1.1020814994298411 -5.88108399957023
H 8.403464006668175 2.0453163107729315 -6.373342502909789
O 9.110049512893966 -5.437518541766998 1.7157296204642243
H 8.825772578479702 -5.482840518888038 0.7904729534523774
H 8.99547676145147 -6.343283110280546 2.040422668360793
O -2.4871849554841337 -4.034513009034884 4.216802966757255
H -2.209433400623513 -3.315871986617338 3.6291155399977804
H -1.6789980622263092 -4.269984234558057 4.696750038648395
O -3.3691238131012464 -6.697747159747625 -4.017445191420102
H -3.913590031837851 -6.390217781090522 -3.2772090299030903
H -3.5771055791148307 -6.079223593041005 -4.733779000991024
O -6.3691757574801695 6.421817531344905 4.688907255187419
H -5.832798384384598 5.840627868542406 5.24880478722575
H -6.059892007343951 6.2319376479479995 3.790435699665013
O 2.3801629166271887 -4.4822951896553125 -7.985418741248537
H 3.084268388758206 -5.146750079328957 -8.026680595350651
H 1.888623118436446 -4.610588618182182 -8.810580160179054
O 3.652121791982721 3.5928682369946348 -5.371765916787927
H 3.6078744283309376 4.5591449272863285 -5.314156147574719
H 4.235828373564724 3.4299584573769226 -6.127880309338922
O 0.019566099131109738 2.223805110141505 -11.121668017126947
H 0.3137220759871804 1.4406631484793673 -10.632660567220679
H -0.9394333423054784 2.2393622904617008 -10.98368254772964
O 3.4780341660836824 -8.509551031761843 5.075761787886948
H 3.8852723380371272 -9.049453646698373 4.38176640275192
H 4.033641957756304 -7.7164706312048565 5.1116143245480945
O 8.251309410141342 -4.749189093415577 8.206833379755755
H 8.190036286324862 -5.558314862355661 8.736482746067932
H 8.148774795126005 -4.036574693180171 8.85539279384269
O -6.166187062158187 6.752121101471068 -0.7161907768557512
H -6.02981731275522 7.278976480769866 -1.5179351610903358
H -5.735753525830734 5.907125654473628 -0.9153681090455379
O -5.657314960433453 4.643913176971293 -5.4534633637581775
H -6.163629913389061 4.862970858507978 -4.656829032666845
H -4.760513941284495 4.951145596238712 -5.25266964646484
O -3.034813528735053 7.036579197652912 -2.369228747421708
H -3.104418665706427 6.620649389967143 -1.4968040361224033
H -3.404179423412283 7.922503017485976 -2.2363010768572975
O 0.43445689540127574 6.760193793169222 5.004685661272415
H 0.5314015465203767 7.363443281346345 4.252582512406892
H 0.3537163609919891 5.885955387484151 4.594624543353968
O -6.79414244249378 -1.1832339929870725 -4.689167368050425
H -7.227706978642701 -2.0321230585015457 -4.863455934353374
H -7.462263411396225 -0.6739733106113959 -4.206228580418784
O 0.41607597774284866 4.771170931420929 7.106736724678005
H -0.21949913146388256 4.040628980705901 7.143069845963334
H 0.8873791671011028 4.630073941738185 6.271915254240641
O 4.982731341422687 -0.33630178011599154 8.261287690701693
H 4.983645317449682 -0.2793249167514884 7.293961396947117
H 4.864373948505914 0.5811854527842553 8.549680910641053
O 3.23724061889827 0.5894486230162208 5.5304853596066845
H 2.9250741327457566 1.0832719758307872 6.303568756167607
H 3.368038694355321 1.2712161179418071 4.854432927749789
O -3.1488721386473912 2.1717344822951867 7.05225768172893
H -3.0191832947714357 2.533497983685402 7.941794263177952
H -3.4427247047340988 1.2619596891208733 7.2101261060857045
C 18.120427967280854 -0.2584329957845597 3.0956909841383897
O 18.76610630503739 -0.23011907384679464 2.088161300567501
O 17.474749629524315 -0.28674691772232475 4.103220667709278
O 2.5973347858210225 5.8478602990202475 18.981916133085317
H 3.1128628006116283 6.4939825583250625 19.487607984806207
H 3.046350786990705 5.809981988086718 18.12406311038597
O 18.434231975580193 -4.857365404074626 2.9165797809146565
H 17.714444361075284 -5.468510067671966 2.6989209950551616
H 18.39823349838149 -4.787836236299683 3.882411934431974
O 12.721425429933893 3.4055822010574115 11.61115482567446
H 12.902104246578038 3.2790000919282365 10.667597995502325
H 12.38719313400488 4.3134768519500915 11.665726059291416
O -9.935481408216376 -4.121602742289593 -0.21447184364258987
H -9.781137898134379 -4.125954817886637 0.7421505987209416
H -10.899417213500417 -4.065221588912644 -0.2957791196718118
O 0.831125502698093 10.852645946052503 -12.930026470134269
H 0.2568522660561765 10.363987030840367 -12.321429665048573
H 0.672226312481083 10.433546607218652 -13.78913573899208
O -0.9326131056920495 -1.667973072698628 -17.78491130445004
H -1.0896270886504744 -1.0260272642558728 -17.076236805770776
H -0.2852957182297252 -1.2303192091616602 -18.357974337562553
O 11.325602683866508 -12.80991349835159 5.508287528375458
H 10.38562753629298 -12.903715629778446 5.2923819031965325
H 11.776212434750782 -13.320065874712613 4.818608364124998
O 13.60385595010958 4.231137245069924 16.453277861428138
H 13.842052019276851 3.908718474950213 15.57107826598063
H 12.65308042349022 4.055573948178335 16.517817547406903
O -0.014238653238708654 -9.434439989292343 -11.173530514830121
H 0.10930773339423538 -9.340016007613889 -10.217085137961202
H 0.7084160724699351 -10.019554927990258 -11.446243917917506
O -5.255070497714673 -9.677155158660016 -6.629670196617108
H -5.333925560100348 -9.50814663632981 -7.580556812053413
H -4.5891192060252255 -9.038863525869006 -6.332930221375916
O 4.789339611080966 -3.716874979397667 8.082573721319807
H 4.466907037913517 -3.72704669701088 8.996302963941176
H 5.19570875273184 -4.5890614886949175 7.968045305571544
O 4.030701504397579 -11.28566933902142 3.1368855737333883
H 3.104475024049764 -11.437331207374232 2.8959072724483286
H 4.5171958496884415 -11.950322590030698 2.6264727484411403
O -13.115153925048364 -10.936319219973266 -15.743378002336188
H -13.889957354173692 -10.600945251246893 -16.218952711731422
H -12.385119289167282 -10.38923238255612 -16.07003893822979
O -8.751778950620182 9.873690959520601 -1.172261426477522
H -8.703221181954017 9.881763656149698 -0.20450922081157807
H -7.849752422296448 10.088440657677584 -1.4536733196905085
O 17.2582354340724 5.479840384772008 -0.9321608639038294
H 17.63405279374396 5.881126701818875 -1.7300944205490305
H 16.856563939391727 6.22583805215275 -0.4619381135785371
O -2.453289273284122 4.255573870704805 2.7842463233715566
H -2.9061611961637457 4.331175134388833 3.6375685528351345
H -1.9681524001960056 5.090340247172759 2.7019708386337173
O -4.6510331660665 8.915508134573358 -3.927956636787566
H -4.737459253961681 9.091997352803151 -4.87682409016542
H -5.543302378067811 8.65250192897822 -3.6565798996986847
O -2.041549223982718 8.603167332273273 -11.380172820990285
H -2.0088580455199883 8.10975944106728 -10.54683777633755
H -2.7791123850722768 8.199888971091584 -11.86217810219184
O -9.556286638532956 5.234917558392675 11.215483136673441
H -9.889892983742026 5.4360382817296 12.102739930381263
H -8.702062180891469 5.690807327782392 11.177706974442529
O 2.77999110614667 16.869608615080143 2.5053608070968605
H 2.5975232813836104 16.70640273960679 3.442930373602309
H 2.234408581238231 16.215467731007976 2.04340696026818