194

C -5.0710522388059704 1.0783507462686561 0.47044029850746183
C -3.8153522388059704 0.1782507462686569 0.19534029850746193
C -4.11845223880597 -1.3219492537313435 0.5608402985074619
C -2.96945223880597 -2.3874492537313436 0.7034402985074619
C -2.52015223880597 0.7359507462686565 0.7384402985074618
C -2.20305223880597 0.7852507462686571 2.097440298507462
C -1.5755522388059702 1.205650746268656 -0.18965970149253808
C -0.9533522388059701 1.2695507462686564 2.508640298507462
H -2.91125223880597 0.4298507462686567 2.840840298507462
C -0.32655223880597006 1.6562507462686575 0.21554029850746192
H -1.7850522388059702 1.178550746268657 -1.2573597014925382
C 0.004447761194029898 1.6956507462686563 1.569740298507462
H -0.7158522388059702 1.2676507462686573 3.5705402985074617
H 0.3943477611940298 1.9193507462686572 -0.5551597014925382
C -1.76045223880597 -2.1592492537313435 -0.1734597014925381
C -0.5287522388059701 -1.936549253731343 0.464840298507462
C -1.8068522388059702 -2.121249253731343 -1.5681597014925381
C 0.6114477611940299 -1.614449253731343 -0.2582597014925381
H -0.4544522388059702 -1.954049253731343 1.5506402985074619
C -0.6479522388059701 -1.8270492537313432 -2.2998597014925384
H -2.74345223880597 -2.290549253731343 -2.092259701492538
C 0.5698477611940298 -1.5506492537313434 -1.6506597014925382
H 1.5072477611940298 -1.351949253731343 0.2991402985074618
H -0.7173522388059701 -1.7640492537313435 -3.3840597014925375
C 1.7791477611940298 -1.082849253731343 -2.4255597014925376
H 1.4739477611940297 -0.9102492537313429 -3.464259701492538
H 2.1252477611940295 -0.1337492537313434 -2.0010597014925384
C 1.3965477611940298 2.0964507462686566 1.997440298507462
H 1.51704776119403 1.8448507462686567 3.057640298507462
H 2.1256477611940294 1.5207507462686571 1.4165402985074618
C 3.94864776119403 -1.4275492537313434 -3.522959701492538
H 4.81734776119403 -2.087049253731343 -3.615159701492538
H 3.4305477611940303 -1.3641492537313429 -4.484459701492538
H 4.26984776119403 -0.441449253731343 -3.176459701492538
C 2.60904776119403 -3.4296492537313434 -2.8992597014925376
H 1.9825477611940296 -3.869549253731343 -2.119359701492538
H 2.06294776119403 -3.373349253731343 -3.845759701492538
H 3.5215477611940305 -4.019849253731343 -3.0234597014925377
C 3.7281477611940304 -2.060049253731343 -1.156659701492538
H 3.9048477611940298 -1.032549253731343 -0.8295597014925382
H 3.12924776119403 -2.623249253731343 -0.4404597014925382
H 4.68244776119403 -2.5769492537313434 -1.3005597014925383
C 3.1110477611940297 3.755250746268656 2.588740298507462
H 3.40124776119403 4.809350746268656 2.534540298507462
H 2.9823477611940303 3.461750746268656 3.634840298507462
H 3.86514776119403 3.1392507462686563 2.091540298507462
C 1.99744776119403 3.9574507462686572 0.40494029850746194
H 2.67914776119403 3.230350746268657 -0.04295970149253803
H 1.03214776119403 3.981150746268657 -0.10175970149253821
H 2.4399477611940297 4.958250746268657 0.368240298507462
C 0.7418477611940297 4.4992507462686575 2.475440298507462
H -0.18475223880597014 4.424250746268656 1.901240298507462
H 0.57844776119403 4.189650746268656 3.511940298507462
H 1.1210477611940297 5.524350746268658 2.4432402985074617
N 3.00114776119403 -2.025349253731343 -2.490159701492538
N 1.7831477611940298 3.586450746268657 1.862540298507462
C -3.55075223880597 -3.8435492537313434 0.6444402985074619
H -2.62515223880597 -2.2736492537313433 1.7424402985074618
H -4.67195223880597 -1.3478492537313436 1.5102402985074619
H -4.83415223880597 -1.6757492537313432 -0.1945597014925382
H -3.7169522388059697 0.17335074626865676 -0.900559701492538
H -3.9132522388059705 -4.043149253731343 -0.34225970149253815
H -4.35435223880597 -3.9354492537313432 1.3449402985074619
H -2.78115223880597 -4.545049253731343 0.8904402985074619
H -5.24235223880597 1.138950746268657 1.5249402985074618
H -5.92805223880597 0.6501507462686567 -0.006059701492538094
H -4.89895223880597 2.059650746268657 0.08004029850746197
C -0.38747531855608797 0.939331899793596 -4.539451028177445
O 0.20768941626183401 1.3554047167397154 -3.55739306246074
O -1.5618245891512754 1.200549622213032 -4.824583552184359
O 0.09248286722293875 0.192658170886983 -5.400129171773759
O -1.9920008848900816 -7.767455163808719 -4.452471699643862
H -1.246005897833622 -8.074801649496147 -4.989125194854897
H -1.5811616269608626 -7.197436361136964 -3.785199931138087
O -0.3239058303207356 -4.908030173486814 -8.92315170287597
H -0.7809356311183331 -4.861512517568999 -8.069965189989825
H -0.6801272452056315 -5.708977188953826 -9.336131274152674
O -2.722267020237081 5.159576244996213 -2.198278127515127
H -2.820020306120155 5.227729449897748 -3.1599260842335473
H -1.9417611832399473 5.699787269279479 -2.0034843084236917
O 8.898464291306253 -5.775523007010673 0.25496156929164737
H 9.1689513261611 -6.532984401733513 0.7953839563001477
H 9.532228607165536 -5.7727566392732435 -0.478043944639154
O 0.11253425706924447 6.442726500468765 -0.08945817153559066
H 0.11935282473725417 5.821873219808834 -0.8334084843446927
H 0.7694510307057997 7.110951682086229 -0.3362321642237269
O 8.34395601769642 0.8666710977708156 -6.9758624795084785
H 8.042424942461725 0.08903742125221248 -6.482575308874609
H 8.940830905189037 0.5016214730029742 -7.646266152259111
O 7.870853705977687 2.939212692933131 -6.616286131063951
H 7.829529061701516 2.6381846566975233 -5.696154753446829
H 7.073854675861387 3.4801999366127165 -6.7215823440520746
O 3.937520828938888 -1.7740436250073215 8.592170297518223
H 3.3227031149158655 -2.0419686450116092 7.892754313229041
H 3.3753356931268494 -1.316805711078481 9.235476839874199
O -6.251297671390777 5.412416169950385 2.425436065996166
H -5.863363226624289 6.269925247256404 2.6559841212937463
H -6.640329212638504 5.559239699207387 1.5501879551893292
O 0.17217213769066442 -7.924592578215224 -0.7766256332860721
H 0.6086264885499775 -7.674508670372098 -1.6048363525803153
H 0.8680650764630182 -7.833382129270229 -0.1085121578419459
O 5.263665559402567 -3.5874020888967104 7.267314218332878
H 4.979631729901751 -4.454292423106947 6.940521793310561
H 6.000110333043178 -3.79164147501528 7.863046803336702
O 4.907942531497406 5.314693768257747 -1.6457951696587867
H 5.047002239568401 4.605011108750025 -2.290760499955894
H 5.727476680499864 5.325070720572328 -1.128863799185415
O -11.028258512599889 -7.473000443283002 1.6741057425596582
H -11.098432719825045 -8.382269189409168 1.3465797361747143
H -10.209834339696139 -7.1426424943785705 1.274096438789777
O -2.9839690264221534 4.403886067329109 6.025277960834301
H -2.592539936911666 5.0614970449120955 5.430888840015842
H -2.8795702327702655 4.793292909681609 6.9064278614261845
O -1.6591396435852497 9.48751072689009 4.908835639287627
H -1.5773799266279473 9.533056165902916 5.873308717485351
H -1.499425967396311 10.397663530066767 4.617158830460021
O -1.6792646394927062 -7.9817212693188235 0.022963727137524703
H -1.2417759020401768 -7.722709234324764 0.8478781028338327
H -1.968974412261265 -8.891665186938855 0.18737862502910962
O -4.032826917694072 -2.0070893876217344 4.422563818118338
H -4.268444635677093 -2.2666326955541605 5.325940217621872
H -3.106647652620043 -1.7309105210012445 4.4924147084430395
O 4.389656293253626 9.852953738657959 -1.1530590043919795
H 3.9705730160289834 10.725297568218744 -1.10455326578428
H 4.609986420966655 9.750971624505194 -2.0911508056112913
O 6.017214340990074 -3.938908387929879 0.20580841266449443
H 5.466022767619524 -4.308089928915826 -0.5004919456396344
H 6.822437255994451 -3.6527697967411394 -0.25103150249657613
O -8.09741299729477 -2.847854493412144 8.038328123366519
H -8.426262874588893 -2.7386269177901603 7.133400252303094
H -8.432805115100054 -2.0676739623925524 8.505010467828011
C -0.6074301232912678 7.834729766853158 -16.94839337889298
O 0.07499683485049946 7.593042990027929 -17.901650535178316
O -1.289857081433035 8.076416543678384 -15.995136222607641
O 9.982867283936129 1.7132043074396812 7.858700694703433
H 10.94493046698025 1.7340486724527444 7.972574753111034
H 9.724128606598063 2.6467299292697057 7.882070644130279
O 14.700995375771488 5.298002232332835 -8.163495909089404
H 14.730015100891974 5.436939250201459 -9.12204779475846
H 15.131062428423126 6.086404150368467 -7.799591127365849
O -14.973908737929102 -10.110268720237988 -2.870364958687124
H -15.473186226785149 -9.73897780366013 -2.127510732550948
H -15.613414108960562 -10.683703780203063 -3.3188814653229093
O 4.575722537367962 14.49930414737142 4.648110080418202
H 5.079679207724248 14.060915026713005 5.3501143611685045
H 5.240456203715921 15.0205191762703 4.173319610027801
O -1.5161739176136804 -10.45136531718547 10.376630368682235
H -2.113055487382245 -10.300808195576575 11.124983428209262
H -2.0111913956161267 -10.120445418747382 9.612162147243422
O -17.079368273395083 8.251765879495712 -8.811503318676497
H -17.398601843332575 8.368548206054049 -9.718927790976306
H -17.519594651047644 7.44259574658131 -8.510826786971421
O 2.9114679905929184 7.750893296714248 20.243023458120433
H 2.024526767512129 7.611852561958281 19.878372532194728
H 2.766566282318402 7.796526309053971 21.200041257026978
O 10.689536656399975 4.754238840713643 9.36770181351375
H 10.690511084195633 4.852679150060469 10.331691394829948
H 10.427529664278278 5.628951203882227 9.043367784926906
O -12.725545077069258 9.916229743943545 -5.577138003204295
H -13.497488022291877 9.702667574391462 -6.122539365466284
H -12.250170320908557 10.583000934143826 -6.095208428362939
O 6.187059233709363 -9.346900289313597 -1.5322220803500435
H 5.766055453473538 -9.199187712817999 -2.392398904422965
H 5.97524939579333 -8.54726161006523 -1.0275672284840285
O -5.245140317878263 0.35166510865941514 -14.548085768023363
H -4.659424964431604 1.0807566489160347 -14.294451370586645
H -4.987100649513723 0.150596068588277 -15.460197995205515
O 4.844075532943932 1.9046460719185054 -6.4852890237704255
H 4.07195078935878 2.4048965303172913 -6.7894932579871305
H 5.44117192202768 1.9087878394936553 -7.248453941861204
O -15.34890835931208 2.0866432561185118 16.392517914659905
H -16.09745795672231 1.548552292238499 16.691012423332452
H -14.591545676459472 1.7219624133806661 16.874567283358086
O 20.24432141487044 7.246908840002201 13.952476513726651
H 20.325240968190645 7.423373352519528 14.901834011517911
H 21.159817853260357 7.129878855010734 13.657294877766226
O 5.5828521275778575 8.117237038909575 10.409885195927876
H 4.964409779376383 8.841983371212233 10.586631264243106
H 6.17906388478876 8.126784656783421 11.173692977936167
O -3.512665595977486 -6.93300351046473 16.54505951086399
H -4.083481196944483 -7.675427276145628 16.7939447429387
H -4.1328229992726 -6.2091355705591225 16.37075533703252
O 11.159149254925987 5.0930225148703245 -4.64815601996676
H 10.716918128878646 4.818204607830584 -5.465391668984348
H 11.980692247511001 5.505899435089008 -4.954034597812925
O 11.821679094253732 -15.179853242757222 -11.246791708637701
H 11.74541737671742 -15.216938442627399 -12.212077259803264
H 11.16330086890816 -14.518733943758171 -10.985216998121142
O 11.192744281738806 3.0266876147492665 3.0156971017722873
H 10.364018778699926 2.5287244313415114 2.9507812679305103
H 10.935887783686814 3.852687321971079 3.4524019991319874
O -3.6863024088929723 -12.580913027246076 -18.951188355906275
H -3.8716101233144316 -12.729331446238058 -18.011720218724488
H -4.0793362030220415 -11.714101677216977 -19.133189631817284