194

C -5.0710522388059704 1.0783507462686561 0.47044029850746183
C -3.8153522388059704 0.1782507462686569 0.19534029850746193
C -4.11845223880597 -1.3219492537313435 0.5608402985074619
C -2.96945223880597 -2.3874492537313436 0.7034402985074619
C -2.52015223880597 0.7359507462686565 0.7384402985074618
C -2.20305223880597 0.7852507462686571 2.097440298507462
C -1.5755522388059702 1.205650746268656 -0.18965970149253808
C -0.9533522388059701 1.2695507462686564 2.508640298507462
H -2.91125223880597 0.4298507462686567 2.840840298507462
C -0.32655223880597006 1.6562507462686575 0.21554029850746192
H -1.7850522388059702 1.178550746268657 -1.2573597014925382
C 0.004447761194029898 1.6956507462686563 1.569740298507462
H -0.7158522388059702 1.2676507462686573 3.5705402985074617
H 0.3943477611940298 1.9193507462686572 -0.5551597014925382
C -1.76045223880597 -2.1592492537313435 -0.1734597014925381
C -0.5287522388059701 -1.936549253731343 0.464840298507462
C -1.8068522388059702 -2.121249253731343 -1.5681597014925381
C 0.6114477611940299 -1.614449253731343 -0.2582597014925381
H -0.4544522388059702 -1.954049253731343 1.5506402985074619
C -0.6479522388059701 -1.8270492537313432 -2.2998597014925384
H -2.74345223880597 -2.290549253731343 -2.092259701492538
C 0.5698477611940298 -1.5506492537313434 -1.6506597014925382
H 1.5072477611940298 -1.351949253731343 0.2991402985074618
H -0.7173522388059701 -1.7640492537313435 -3.3840597014925375
C 1.7791477611940298 -1.082849253731343 -2.4255597014925376
H 1.4739477611940297 -0.9102492537313429 -3.464259701492538
H 2.1252477611940295 -0.1337492537313434 -2.0010597014925384
C 1.3965477611940298 2.0964507462686566 1.997440298507462
H 1.51704776119403 1.8448507462686567 3.057640298507462
H 2.1256477611940294 1.5207507462686571 1.4165402985074618
C 3.94864776119403 -1.4275492537313434 -3.522959701492538
H 4.81734776119403 -2.087049253731343 -3.615159701492538
H 3.4305477611940303 -1.3641492537313429 -4.484459701492538
H 4.26984776119403 -0.441449253731343 -3.176459701492538
C 2.60904776119403 -3.4296492537313434 -2.8992597014925376
H 1.9825477611940296 -3.869549253731343 -2.119359701492538
H 2.06294776119403 -3.373349253731343 -3.845759701492538
H 3.5215477611940305 -4.019849253731343 -3.0234597014925377
C 3.7281477611940304 -2.060049253731343 -1.156659701492538
H 3.9048477611940298 -1.032549253731343 -0.8295597014925382
H 3.12924776119403 -2.623249253731343 -0.4404597014925382
H 4.68244776119403 -2.5769492537313434 -1.3005597014925383
C 3.1110477611940297 3.755250746268656 2.588740298507462
H 3.40124776119403 4.809350746268656 2.534540298507462
H 2.9823477611940303 3.461750746268656 3.634840298507462
H 3.86514776119403 3.1392507462686563 2.091540298507462
C 1.99744776119403 3.9574507462686572 0.40494029850746194
H 2.67914776119403 3.230350746268657 -0.04295970149253803
H 1.03214776119403 3.981150746268657 -0.10175970149253821
H 2.4399477611940297 4.958250746268657 0.368240298507462
C 0.7418477611940297 4.4992507462686575 2.475440298507462
H -0.18475223880597014 4.424250746268656 1.901240298507462
H 0.57844776119403 4.189650746268656 3.511940298507462
H 1.1210477611940297 5.524350746268658 2.4432402985074617
N 3.00114776119403 -2.025349253731343 -2.490159701492538
N 1.7831477611940298 3.586450746268657 1.862540298507462
C -3.55075223880597 -3.8435492537313434 0.6444402985074619
H -2.62515223880597 -2.2736492537313433 1.7424402985074618
H -4.67195223880597 -1.3478492537313436 1.5102402985074619
H -4.83415223880597 -1.6757492537313432 -0.1945597014925382
H -3.7169522388059697 0.17335074626865676 -0.900559701492538
H -3.9132522388059705 -4.043149253731343 -0.34225970149253815
H -4.35435223880597 -3.9354492537313432 1.3449402985074619
H -2.78115223880597 -4.545049253731343 0.8904402985074619
H -5.24235223880597 1.138950746268657 1.5249402985074618
H -5.92805223880597 0.6501507462686567 -0.006059701492538094
H -4.89895223880597 2.059650746268657 0.08004029850746197
C 3.3026049767806267 -0.4205250717617548 2.4130729804638857
O 3.796122092387008 -0.09216276419432878 1.3451804061978445
O 3.574242032548605 0.0839715243275756 3.5086677771693022
O 2.455153748076811 -1.3081449828415614 2.5634248771033037
O -0.5434173266206037 -5.017532766722944 -7.536209084190443
H -0.21821796711917107 -4.845148128925101 -6.63982954954501
H 0.05099104361430884 -5.704859033961345 -7.872695690251964
O 2.8767027131771146 11.663529310889803 -2.0302127139764563
H 3.7212610310802554 11.932307053686799 -2.4219359958190987
H 2.444237792922604 11.154968609478004 -2.7325673608812773
O -7.64616759437244 -0.9510995258771553 5.961370840163873
H -6.871157715212269 -0.3842787544366768 6.091913006408191
H -8.256196862471754 -0.6787966877934775 6.663280663954502
O 4.520932822927463 -4.040220692578712 -9.596792588280751
H 4.8919306865321115 -3.338323898721657 -10.15237231511928
H 3.8888702734013654 -3.577666924757703 -9.026263982809336
O -8.452952170398065 5.333228886915702 6.300732819392915
H -7.551358899812816 5.0193131766955315 6.466726368099975
H -8.871177287438739 4.601616665242512 5.8224094425078485
O 6.691580907130818 3.394777447156917 -6.7438284772752155
H 7.577190650301352 3.3321117686644746 -6.3555814522505525
H 6.853641983719717 3.385680658653728 -7.699137537314833
O 6.304283724799166 -8.375761606008 3.100091781415362
H 5.74869896338395 -8.903646825584326 3.6930758661394396
H 6.841936874316463 -7.837667097939878 3.700379492018416
O -4.808164688540995 -5.937598148968224 -3.024201056898783
H -5.32765467626725 -6.7202173646287875 -2.786283691347169
H -5.113822601786879 -5.256952697428359 -2.4059317355927154
O -4.268471036909014 -6.0833333405447165 0.6153118110874511
H -4.476441526354091 -6.928880491801905 0.19014637573219018
H -5.114910722583052 -5.7943874073155675 0.9881550093442675
O -5.0529115647557825 -2.6387401008291524 4.762215193479943
H -5.194847756338827 -2.901665400923255 5.684002457977194
H -5.937105410665103 -2.6808233706188753 4.368017038283993
O -7.797583324524328 4.318449776439221 1.687261284483419
H -7.222246542260059 4.263780557826354 2.465057029142682
H -7.760695567863794 3.428446672567273 1.3058222817492322
O 5.474558627801428 -4.537448533806128 1.0447839252544113
H 5.598448053796899 -4.934967651845219 1.9197681067228178
H 5.012818658087646 -3.7056566017463277 1.2288500178106994
O -1.108050706547666 -2.7784899782341306 7.680734896862592
H -2.0125666943268286 -2.7094792346413366 7.340065405976404
H -1.2232373222965347 -2.8327484136856462 8.641333673686026
O -3.2358623322486073 5.341064415723545 -3.9058226650055126
H -3.2810657062971975 4.634198565047175 -3.2445627455924306
H -2.321083363059918 5.306227978600711 -4.223514031710155
O -1.500503284210402 -9.142218128319405 -7.363359451021407
H -2.249690932150335 -9.32385180681279 -7.9504662827915675
H -1.7742462720893517 -8.353291205994651 -6.87180982777031
O -5.058357153779669 7.282163725062784 -3.286320009194206
H -4.516205449676446 8.03986770487306 -3.0200052224893708
H -5.875807890567944 7.388731787183272 -2.7770268859732186
O -3.9148094667927675 4.171922369482056 -6.460857688034622
H -3.921226019525776 4.156439848367752 -5.491999351490538
H -3.4455007122376697 3.3600140689310267 -6.704817005737968
O -1.3202904160389108 9.008121726621114 2.3976170793109435
H -1.6949884881111248 9.778242083655424 1.9443143687888056
H -1.9494029355365328 8.29592190978068 2.208010109492312
O 3.3671309430335574 -4.637701122837612 3.4794792221932407
H 3.4020783142056588 -5.195606270229967 4.270989098733815
H 2.950104052829129 -3.819320668104339 3.7881925980890463
O 5.744461781963274 0.8108070377521184 -7.7142009048079245
H 6.634598857931273 0.4563943979724088 -7.85916649952446
H 5.549025940662427 1.2940180556206502 -8.531069246981549
C 2.128466281377099 -10.07003053025136 10.957377259583893
O 1.6754849552556017 -10.370159530267042 9.890817950949444
O 2.581447607498596 -9.769901530235678 12.023936568218344
O -4.952140113350108 -2.0680364169203482 8.459999122893048
H -5.111782540808406 -1.9569281394771882 9.409281274278419
H -5.741927416422036 -1.6908904786615753 8.044115844242326
O -6.357328359285487 -5.744274423909719 -6.993820054759221
H -6.773132972924983 -6.2407464304817415 -7.714645572389154
H -6.882254893508708 -5.979842604969131 -6.2141267111678085
O -8.60350178132835 4.303108913828412 12.76415014501115
H -8.502891849070672 3.399497002183519 12.428992702061471
H -9.304234755280818 4.680975871725024 12.21174467287525
O -13.682763288802736 -6.158099040563756 -8.0902445248899
H -13.611245959018195 -5.9309729890913 -7.150954162337923
H -13.906802615539883 -5.317890085844269 -8.517815848512463
O -2.5468941659135833 3.8219449055719377 9.612481056577042
H -1.8256278217519153 4.465743797619089 9.677789588014566
H -2.5987296195735103 3.6238061857901482 8.665371729325377
O -11.57500717588316 -2.8425732052817994 -13.23543946887214
H -12.363924184452355 -2.3735782582229046 -13.546278736216951
H -10.969503393987 -2.133263741470068 -12.972366857305362
O 5.6304603687004455 -12.076363754645108 -6.601415453165981
H 5.641179924563249 -12.218458535081291 -7.55988377366223
H 5.924078847054249 -12.924341188722977 -6.2357866731664995
O -5.391506564857609 -10.176646805088989 -20.10700313113685
H -4.787269595903015 -10.682600288512731 -20.67080816380324
H -5.659371249597129 -10.809524716144917 -19.423866245390748
O 12.113674798670411 1.016338149603575 1.4023757655120557
H 12.37697427010367 0.583121049751834 0.5765648370066181
H 11.82924859326071 1.8995264869828943 1.1230157134405574
O -8.420217647598996 -16.815638981486416 11.29969314751605
H -7.946961878393933 -16.03250274400444 11.618588063368744
H -8.117683521126713 -16.915425069961252 10.384555025063191
O -5.291950728336814 12.384321753645747 -1.9351874175412598
H -5.0915512652835675 11.465656958080205 -1.7009601657183924
H -5.329711491266363 12.376103287701824 -2.903417000801608
O 0.07665091430245852 -3.486145689389464 -15.648606253795647
H -0.29290696663741933 -3.468103933879082 -14.753023301415842
H 1.0130384756288877 -3.272749801306673 -15.519755664963084
O -11.947789224685348 0.8770293742960664 -3.0117166094702474
H -12.138843671962006 0.620030556876868 -2.0971581570348956
H -11.14027631838746 0.3873029936361885 -3.228633465772643
O 8.823198875166948 -12.592978269324087 8.752984142616459
H 9.097131178052406 -13.503501971782397 8.939732737249678
H 9.658340871047137 -12.10569639159764 8.689296132311187
O -8.575493549383829 1.69747728920336 -8.755271900618483
H -7.717935586369222 1.3846550779967264 -8.430150444626983
H -8.35264620954544 2.2121112195232135 -9.545495239422454
O -5.390752769785675 -12.180170587045318 0.7289905318328582
H -4.6067914722919765 -12.743998565040481 0.6485538973813672
H -5.588231358069122 -11.922254132186703 -0.18394060126686274
O -11.091539327023586 5.894280532652429 -4.631915785373792
H -10.824127273175739 6.588627133874203 -4.011157420364791
H -10.26140261016184 5.446513265136756 -4.854040637111614
O -10.03062505287639 0.8127856566964597 1.0488622446194307
H -10.564798590411284 0.9302453843350473 1.8487554881716748
H -9.347195629918861 0.17938203290086063 1.3147306660209561
O 2.804934479782574 -9.544792337663905 -5.5892056631490155
H 2.022308219303338 -9.462902836626835 -5.023734529554923
H 3.536087545152059 -9.65336105508139 -4.962635656765748
O 10.922565171114464 7.629097663014536 -1.214950100863323
H 10.258537536910715 8.328825786430967 -1.3066845612034568
H 10.406057779508936 6.84710350036518 -0.9686429992621233