194

C -5.0710522388059704 1.0783507462686561 0.47044029850746183
C -3.8153522388059704 0.1782507462686569 0.19534029850746193
C -4.11845223880597 -1.3219492537313435 0.5608402985074619
C -2.96945223880597 -2.3874492537313436 0.7034402985074619
C -2.52015223880597 0.7359507462686565 0.7384402985074618
C -2.20305223880597 0.7852507462686571 2.097440298507462
C -1.5755522388059702 1.205650746268656 -0.18965970149253808
C -0.9533522388059701 1.2695507462686564 2.508640298507462
H -2.91125223880597 0.4298507462686567 2.840840298507462
C -0.32655223880597006 1.6562507462686575 0.21554029850746192
H -1.7850522388059702 1.178550746268657 -1.2573597014925382
C 0.004447761194029898 1.6956507462686563 1.569740298507462
H -0.7158522388059702 1.2676507462686573 3.5705402985074617
H 0.3943477611940298 1.9193507462686572 -0.5551597014925382
C -1.76045223880597 -2.1592492537313435 -0.1734597014925381
C -0.5287522388059701 -1.936549253731343 0.464840298507462
C -1.8068522388059702 -2.121249253731343 -1.5681597014925381
C 0.6114477611940299 -1.614449253731343 -0.2582597014925381
H -0.4544522388059702 -1.954049253731343 1.5506402985074619
C -0.6479522388059701 -1.8270492537313432 -2.2998597014925384
H -2.74345223880597 -2.290549253731343 -2.092259701492538
C 0.5698477611940298 -1.5506492537313434 -1.6506597014925382
H 1.5072477611940298 -1.351949253731343 0.2991402985074618
H -0.7173522388059701 -1.7640492537313435 -3.3840597014925375
C 1.7791477611940298 -1.082849253731343 -2.4255597014925376
H 1.4739477611940297 -0.9102492537313429 -3.464259701492538
H 2.1252477611940295 -0.1337492537313434 -2.0010597014925384
C 1.3965477611940298 2.0964507462686566 1.997440298507462
H 1.51704776119403 1.8448507462686567 3.057640298507462
H 2.1256477611940294 1.5207507462686571 1.4165402985074618
C 3.94864776119403 -1.4275492537313434 -3.522959701492538
H 4.81734776119403 -2.087049253731343 -3.615159701492538
H 3.4305477611940303 -1.3641492537313429 -4.484459701492538
H 4.26984776119403 -0.441449253731343 -3.176459701492538
C 2.60904776119403 -3.4296492537313434 -2.8992597014925376
H 1.9825477611940296 -3.869549253731343 -2.119359701492538
H 2.06294776119403 -3.373349253731343 -3.845759701492538
H 3.5215477611940305 -4.019849253731343 -3.0234597014925377
C 3.7281477611940304 -2.060049253731343 -1.156659701492538
H 3.9048477611940298 -1.032549253731343 -0.8295597014925382
H 3.12924776119403 -2.623249253731343 -0.4404597014925382
H 4.68244776119403 -2.5769492537313434 -1.3005597014925383
C 3.1110477611940297 3.755250746268656 2.588740298507462
H 3.40124776119403 4.809350746268656 2.534540298507462
H 2.9823477611940303 3.461750746268656 3.634840298507462
H 3.86514776119403 3.1392507462686563 2.091540298507462
C 1.99744776119403 3.9574507462686572 0.40494029850746194
H 2.67914776119403 3.230350746268657 -0.04295970149253803
H 1.03214776119403 3.981150746268657 -0.10175970149253821
H 2.4399477611940297 4.958250746268657 0.368240298507462
C 0.7418477611940297 4.4992507462686575 2.475440298507462
H -0.18475223880597014 4.424250746268656 1.901240298507462
H 0.57844776119403 4.189650746268656 3.511940298507462
H 1.1210477611940297 5.524350746268658 2.4432402985074617
N 3.00114776119403 -2.025349253731343 -2.490159701492538
N 1.7831477611940298 3.586450746268657 1.862540298507462
C -3.55075223880597 -3.8435492537313434 0.6444402985074619
H -2.62515223880597 -2.2736492537313433 1.7424402985074618
H -4.67195223880597 -1.3478492537313436 1.5102402985074619
H -4.83415223880597 -1.6757492537313432 -0.1945597014925382
H -3.7169522388059697 0.17335074626865676 -0.900559701492538
H -3.9132522388059705 -4.043149253731343 -0.34225970149253815
H -4.35435223880597 -3.9354492537313432 1.3449402985074619
H -2.78115223880597 -4.545049253731343 0.8904402985074619
H -5.24235223880597 1.138950746268657 1.5249402985074618
H -5.92805223880597 0.6501507462686567 -0.006059701492538094
H -4.89895223880597 2.059650746268657 0.08004029850746197
C 2.593346401691658 1.3261952777627088 -4.350385925840841
O 3.2546808876894557 0.8251763161327104 -5.24670740629148
O 3.0202216782650018 2.13064469783748 -3.514162216004892
O 1.3948541060514745 1.1062976938477909 -4.140839620028727
O 9.106626999102275 -2.42024761272601 -1.7150989307597793
H 8.494168290476086 -2.2456933780203423 -0.9847616756000401
H 8.540796152990849 -2.7817584919154923 -2.413745681354437
O -3.47672659116494 -6.45275361965958 -3.697434392147424
H -3.227338179203759 -6.836742586021389 -2.8434289761272025
H -2.926457276848697 -5.658142409017216 -3.7664173606498537
O 10.663740227731928 -2.581698329597372 -4.387116316410711
H 9.955381221423961 -2.213366784681715 -4.936230829151395
H 11.06331787004747 -1.804602328482602 -3.9682828684710976
O -6.060264894804655 0.1149405891078672 -6.345477881852947
H -5.663363252107456 0.9211568665959684 -6.708040644471359
H -6.971815942263327 0.3735914073581035 -6.1426568119526985
O 5.560076166292487 -1.0715416402188924 5.922863301502156
H 4.604930256661285 -1.0736333144954768 5.759586624926769
H 5.940165372763058 -0.7685846518824431 5.084584587324897
O -10.02702675833109 -2.3632290188235605 3.744372819171055
H -10.682019592218403 -3.0089889875436673 3.4395026709851866
H -10.482327271500239 -1.885028631653816 4.453589130826828
O -6.808292127929306 -4.892032543432681 0.6991523759161475
H -7.115898443789334 -4.760991988699638 1.6086434887689773
H -7.331205751539014 -5.643302556052088 0.38116392536770216
O -4.247174700671017 0.07895569536027558 7.826120657353894
H -4.73263878996646 -0.7037386415154697 8.127254431492872
H -4.450881907519884 0.1311481926485984 6.880213018414107
O -2.249864094133276 -6.7659020498959235 8.294561219605798
H -2.1324790621968535 -6.815645712305752 7.3339813534690235
H -1.4335242602994118 -7.148076366126223 8.650221186442103
O -6.354752464420391 3.4856034913919585 -4.091962964159164
H -7.002561535229776 4.113508650875817 -3.738344701946035
H -6.88505982252215 2.882881922283368 -4.634607194179544
O -7.657114585174369 6.570323234598582 4.757795740226254
H -7.833319661462981 6.499000590464876 3.8076209097745615
H -8.495533617156227 6.884445493882188 5.1283934700266
O 5.98738079416464 0.2157572066403735 0.42501553316194773
H 5.877434183058079 0.3884485886503371 -0.5221152847220829
H 6.552878261034895 0.9406986773890222 0.7310129567656591
O -4.432870505201939 1.0785214113009216 -4.215178382874673
H -5.026676853721139 0.5736771597631556 -3.639423522671506
H -3.7894323552184095 0.42183325950461303 -4.52129921316252
O 1.653709607526522 -9.304326116304942 -0.29807975230022965
H 1.6885003390823226 -9.911079390879886 -1.052803162358773
H 1.989640060678311 -9.831890307032474 0.4420477364523747
O -2.434440303946756 -3.6458334142176483 -4.854611958979985
H -2.3525134024679417 -2.7185210666334387 -4.585637704204654
H -2.684488417211134 -3.597143330713167 -5.78952754935232
O -5.964090009306161 9.383956849841198 -4.993500677666656
H -5.992730990738543 9.427970938575129 -5.961080034141108
H -6.514534783435669 8.616223395678869 -4.77772802348292
O 2.431351784447277 5.267127555581451 -7.036891403890219
H 2.52524072739439 4.815112959403198 -6.184931881298866
H 1.525776961445036 5.0604985383417835 -7.312936026150872
O -8.099056407785634 -2.4539118167720417 -1.4570656296099957
H -8.599517833635712 -3.030832810942173 -2.053444606957332
H -7.218893164355616 -2.857913400502615 -1.424549025267925
O 8.469972357043028 -6.233776804239058 0.9581474360291038
H 7.978816339018684 -6.506355930624225 1.747725641603176
H 9.0982500057586 -6.956891794151853 0.8120863125641291
O -3.5121165201893096 2.864727918304762 -8.006073714333576
H -2.7889906566065323 2.219800149114514 -8.017232336334262
H -3.14001153399171 3.6254750026240674 -7.535155783854647
C -12.80287324643286 -10.015360509654307 -4.558397799384202
O -12.79001191075401 -10.139630994226591 -5.748863964383747
O -12.815734582111709 -9.891090025082026 -3.3679316343846555
O 1.9124392487616557 -16.427106628941374 3.2961141876201445
H 1.7576403810220027 -16.417287766643927 4.252622555272883
H 2.869770705566344 -16.302557345598956 3.2126522074668786
O 17.409998063497582 -3.7776051040253966 -4.670374566387894
H 17.917538505343636 -4.586289967456545 -4.504848591241824
H 18.02567850337701 -3.2107032158355295 -5.158761492315111
O -17.238659791335447 5.5485683640118335 -4.301486083335149
H -16.957073035626586 6.10824587087656 -3.5622720789906417
H -16.53246909172456 4.889513955283481 -4.378323095372381
O -2.285001392929132 6.175562114232417 12.257222606455901
H -2.3094973219843604 6.421959931850756 11.320389952332102
H -1.3854727599196606 6.40396139793671 12.535869246305506
O -2.586840268034022 -12.06929960725283 21.13522137494713
H -2.242840025451936 -11.195363330650155 20.89675424001797
H -2.452706590580922 -12.599825682039432 20.335526317538104
O 4.403402389417483 0.40730402328300475 16.931133324326943
H 3.691479899208932 -0.015191440314217708 17.434751540910717
H 5.212818745420969 0.09262033178577589 17.360995257091073
O -1.702828816051813 -8.268368952107146 14.216987270340784
H -1.6411269745762094 -8.184641675811049 13.253581860940072
H -1.3214448847018132 -9.139928403733338 14.401086057650943
O -13.407932879678867 -5.7409709727788085 4.750245572639574
H -13.049431283461345 -5.481824722516999 3.8881045265312633
H -14.343932060785718 -5.916608565672013 4.5713072781635615
O 18.750620735214483 6.104878407246218 2.6752930979977902
H 19.1828342129432 5.839728440644534 3.501037829607248
H 17.806244240442208 5.985579180779252 2.85662890523401
O -9.709305515264505 4.691058410653307 12.285174352950968
H -9.149266461440671 5.267904914603893 11.744275355011341
H -10.425225492114308 5.2721997613678555 12.58299184998069
O 14.019997968306406 -2.0888445201852415 -8.250440211840461
H 13.985508143348696 -2.07183682044196 -9.21868013408279
H 14.07755966991814 -1.154050155945006 -8.00182788030348
O 7.633576478438145 -10.144951694191537 8.0486419198314
H 8.16927177463042 -9.431450198332357 7.670602871657554
H 7.45553247685925 -10.72815950914038 7.295560966424418
O -1.645179359850589 14.836396022805136 14.541107800934265
H -1.6191293306312167 14.897735701789419 15.507816752304727
H -1.3961113335969921 15.72427211394266 14.243445056566609
O -10.428218501276236 3.572667425535869 -13.195603478916732
H -10.852661629886967 3.0338897481734257 -12.511108042956005
H -10.63190902871623 3.106395009923882 -14.020262285800271
O 1.0992783391227279 -6.6196053701285855 -6.3533689247158325
H 1.0607225976341277 -5.683240188288064 -6.106993077817173
H 1.7412636970944395 -6.644522238952318 -7.0787625379341685
O 20.599871577376426 -5.3735306319155285 -2.113916829042453
H 21.143742289519032 -4.949112182791891 -1.4334456794578594
H 21.20547095526836 -5.996879350590305 -2.542458207118613
O 10.912594065145193 -3.734757281806348 12.22378025129693
H 11.511827376261436 -3.5047116349008394 12.949704349318539
H 11.443274527661625 -4.314502974221038 11.657004172823289
O 8.323302882087477 12.370119727206731 3.702343206346888
H 8.449900544093813 11.739744513931456 2.9773828768372788
H 7.363507595719922 12.384854204044878 3.8347737457210362
O 7.837431201468332 -15.55588217067562 6.779210391898024
H 7.684495368706926 -16.512436812094023 6.803318604989903
H 6.94629012620682 -15.177271458321556 6.740694722716443
O 10.416433024164489 -1.172782576570432 -13.137554905606777
H 10.209944408335804 -1.487604658192721 -14.030424921542
H 10.996679098166684 -0.41110465374892957 -13.286293534722958