194

C -5.0710522388059704 1.0783507462686561 0.47044029850746183
C -3.8153522388059704 0.1782507462686569 0.19534029850746193
C -4.11845223880597 -1.3219492537313435 0.5608402985074619
C -2.96945223880597 -2.3874492537313436 0.7034402985074619
C -2.52015223880597 0.7359507462686565 0.7384402985074618
C -2.20305223880597 0.7852507462686571 2.097440298507462
C -1.5755522388059702 1.205650746268656 -0.18965970149253808
C -0.9533522388059701 1.2695507462686564 2.508640298507462
H -2.91125223880597 0.4298507462686567 2.840840298507462
C -0.32655223880597006 1.6562507462686575 0.21554029850746192
H -1.7850522388059702 1.178550746268657 -1.2573597014925382
C 0.004447761194029898 1.6956507462686563 1.569740298507462
H -0.7158522388059702 1.2676507462686573 3.5705402985074617
H 0.3943477611940298 1.9193507462686572 -0.5551597014925382
C -1.76045223880597 -2.1592492537313435 -0.1734597014925381
C -0.5287522388059701 -1.936549253731343 0.464840298507462
C -1.8068522388059702 -2.121249253731343 -1.5681597014925381
C 0.6114477611940299 -1.614449253731343 -0.2582597014925381
H -0.4544522388059702 -1.954049253731343 1.5506402985074619
C -0.6479522388059701 -1.8270492537313432 -2.2998597014925384
H -2.74345223880597 -2.290549253731343 -2.092259701492538
C 0.5698477611940298 -1.5506492537313434 -1.6506597014925382
H 1.5072477611940298 -1.351949253731343 0.2991402985074618
H -0.7173522388059701 -1.7640492537313435 -3.3840597014925375
C 1.7791477611940298 -1.082849253731343 -2.4255597014925376
H 1.4739477611940297 -0.9102492537313429 -3.464259701492538
H 2.1252477611940295 -0.1337492537313434 -2.0010597014925384
C 1.3965477611940298 2.0964507462686566 1.997440298507462
H 1.51704776119403 1.8448507462686567 3.057640298507462
H 2.1256477611940294 1.5207507462686571 1.4165402985074618
C 3.94864776119403 -1.4275492537313434 -3.522959701492538
H 4.81734776119403 -2.087049253731343 -3.615159701492538
H 3.4305477611940303 -1.3641492537313429 -4.484459701492538
H 4.26984776119403 -0.441449253731343 -3.176459701492538
C 2.60904776119403 -3.4296492537313434 -2.8992597014925376
H 1.9825477611940296 -3.869549253731343 -2.119359701492538
H 2.06294776119403 -3.373349253731343 -3.845759701492538
H 3.5215477611940305 -4.019849253731343 -3.0234597014925377
C 3.7281477611940304 -2.060049253731343 -1.156659701492538
H 3.9048477611940298 -1.032549253731343 -0.8295597014925382
H 3.12924776119403 -2.623249253731343 -0.4404597014925382
H 4.68244776119403 -2.5769492537313434 -1.3005597014925383
C 3.1110477611940297 3.755250746268656 2.588740298507462
H 3.40124776119403 4.809350746268656 2.534540298507462
H 2.9823477611940303 3.461750746268656 3.634840298507462
H 3.86514776119403 3.1392507462686563 2.091540298507462
C 1.99744776119403 3.9574507462686572 0.40494029850746194
H 2.67914776119403 3.230350746268657 -0.04295970149253803
H 1.03214776119403 3.981150746268657 -0.10175970149253821
H 2.4399477611940297 4.958250746268657 0.368240298507462
C 0.7418477611940297 4.4992507462686575 2.475440298507462
H -0.18475223880597014 4.424250746268656 1.901240298507462
H 0.57844776119403 4.189650746268656 3.511940298507462
H 1.1210477611940297 5.524350746268658 2.4432402985074617
N 3.00114776119403 -2.025349253731343 -2.490159701492538
N 1.7831477611940298 3.586450746268657 1.862540298507462
C -3.55075223880597 -3.8435492537313434 0.6444402985074619
H -2.62515223880597 -2.2736492537313433 1.7424402985074618
H -4.67195223880597 -1.3478492537313436 1.5102402985074619
H -4.83415223880597 -1.6757492537313432 -0.1945597014925382
H -3.7169522388059697 0.17335074626865676 -0.900559701492538
H -3.9132522388059705 -4.043149253731343 -0.34225970149253815
H -4.35435223880597 -3.9354492537313432 1.3449402985074619
H -2.78115223880597 -4.545049253731343 0.8904402985074619
H -5.24235223880597 1.138950746268657 1.5249402985074618
H -5.92805223880597 0.6501507462686567 -0.006059701492538094
H -4.89895223880597 2.059650746268657 0.08004029850746197
C 1.4089058635452216 -0.5378593959418378 4.118221547652121
O 1.408661070209463 0.37725741197003915 4.927132337883898
O 1.9369849686119789 -0.5010541990193397 3.0008991678657897
O 0.881104958370555 -1.6423762831004762 4.291764150139793
O -4.230159330218709 -11.01233412892595 1.312788593224675
H -5.068965052596985 -11.324821838696845 1.683900097017808
H -3.673650698552302 -10.856615463374462 2.0906136277791347
O -0.2430865758045555 4.221357224638991 -5.956817123987405
H 0.6060899745854911 4.508415828399923 -5.588762914427882
H -0.8859948712964918 4.831987357895029 -5.565969700755059
O -6.8066847579578535 3.1439636886583853 -2.4953516278925996
H -6.7845941904481215 3.2766579958936157 -1.5357310859311109
H -6.469761384470887 3.9783604080525934 -2.854832780892788
O -2.971694578678561 3.226035145714092 -9.454633787354274
H -3.2240961371035755 3.4260975654192176 -8.54072140729459
H -2.003091437159333 3.2499275471085056 -9.440525219223876
O 7.389949643218822 0.41696645696829737 6.020144632351541
H 8.344748768060366 0.5743784195254926 5.9696722424169
H 7.295533289265506 -0.21859514660886814 6.745478310367791
O -2.2801009870603552 -1.3168816398625165 7.873996468463597
H -2.347386463703817 -1.2284563076121522 8.836608011168792
H -3.2015940238221203 -1.3208226488337533 7.574334999555984
O 0.08753298524278641 8.237194242702675 5.785181685518455
H -0.3238533730297277 8.140409863793359 6.657168729646071
H 0.12484484729357481 7.3316993014434875 5.4421821511101385
O -6.5856200394424125 -1.235892474007357 -5.370439147664207
H -6.766619236572998 -1.2649842630081756 -6.3219433858843095
H -5.654350619438533 -1.494584138702395 -5.301317267749475
O 0.36555671259143707 -8.924710440476568 3.3086548112748666
H 0.0789880495763354 -8.256523049137623 2.6680524632200098
H 0.9447662386737328 -8.436454509906 3.9128769686459712
O 5.257873919690682 -4.566909642671411 5.934349976503118
H 5.644342122395309 -3.738247879624326 6.255176047236083
H 5.312895879161442 -5.161677166519108 6.697361195851875
O 7.169864712451581 3.825783055968902 0.31946126074061143
H 7.986896601544237 4.039365388338509 -0.15573221186317432
H 7.299808293333812 2.910100394581366 0.6086011468195491
O -2.918668858410978 -4.430053480820429 4.3449752283901315
H -2.4900833529997493 -3.5617944775310493 4.307450241270423
H -3.1446035111628223 -4.619636463435578 3.421950976439703
O 6.9716321086622095 8.096580130733132 -2.5784040434731432
H 6.869765853933514 7.637060078187274 -1.7313904990974929
H 7.731603480092962 8.681049643089914 -2.4376885573634413
O 5.110195402767993 6.534220624371454 8.199115110437956
H 5.164060969515768 6.444507735087063 7.235778484374571
H 5.236302723354499 5.630687607846939 8.525744833587282
O -5.687640072040956 4.667717666682726 1.0235528051984872
H -5.898631136674662 4.980229672927197 1.9161817166156518
H -5.989158627059744 3.746826893641374 1.020605025240435
O 1.0380092396807126 3.3986829672049095 8.397558914554464
H 0.6495646312425303 3.13227371734333 9.244378998553126
H 0.8784434664055656 4.353592172703001 8.356949586142044
O -3.5817175859726436 2.63256685141733 -2.9534040908411736
H -2.8689790343978103 2.484832678245991 -3.5930490924447116
H -3.721777144986608 3.591118813795659 -2.9762820201501894
O 3.790943807811222 -4.1661278189810265 -5.712992986042833
H 4.6069554987765 -4.576841729945002 -6.036112716868212
H 3.6127496337978062 -3.462714879996935 -6.35519156741579
O -1.3710951876338415 6.712123759065175 8.680397309229834
H -0.700204127693349 6.452295510608642 8.03127341974807
H -2.052635754323808 6.0281132599736225 8.59919363081288
O -1.6334228343074357 2.9131577349699036 6.965372447964229
H -0.7565733299285347 2.9175375978992086 7.377783796463755
H -1.6659535096341402 2.0673965723861647 6.493576140933547
C -2.7960910581255636 -16.42286378249275 16.866280561414786
O -2.8032914804257008 -16.03378735691109 17.99826375310771
O -2.7888906358254264 -16.81194020807441 15.734297369721862
O -15.488024457279383 -8.374717139145838 0.5581661043008292
H -14.767922095780609 -9.021253988840712 0.6072583424909448
H -15.14053427416426 -7.680965616537801 -0.022283154306371955
O 8.389169504535127 13.74027401843402 8.144864828375159
H 8.449253518028515 13.65728907837045 9.10843670838473
H 9.199157116705814 14.212227316563453 7.899625971717453
O 14.046175713092463 -7.064774125036335 -2.3263173792770226
H 14.193407366190478 -6.108252511006881 -2.2777725636885746
H 14.477703187357665 -7.408733122314714 -1.529801094794686
O 7.663174166432631 18.645390051112205 -1.0495918350085867
H 7.9136743388950945 19.24760544012083 -0.33296526158455775
H 8.474877455669832 18.14874063547674 -1.2324553701665422
O 12.15366966671038 8.305775709490044 6.717641573705283
H 12.568845232409307 8.855896424425868 6.0364926872310605
H 11.943524231296301 7.4802457277935375 6.255796264543445
O -4.267410525214366 7.067552163034666 -10.074065646436802
H -4.388179054374028 7.2366459926341635 -9.127604027534064
H -3.650421656183351 7.758515887782912 -10.358417208545852
O 2.625865181415256 2.037186483845912 -5.956870103422126
H 2.6199995834118237 1.9520088800087174 -6.922104648734621
H 1.8450098049767536 2.577891545785875 -5.764867860259228
O -11.15166786948449 11.532995465797143 -11.085929406140057
H -11.521082546114922 12.326940367309149 -10.671017792717244
H -10.573843298520577 11.159578122183675 -10.403551067548456
O -11.829839779678018 -7.065314192832339 11.588170014876688
H -12.66063939564853 -7.215078858061951 11.112449613746028
H -11.242707855824198 -7.762370033337446 11.259002574947662
O 4.514279330497726 -7.9187319407312105 -8.096424193868678
H 5.089843331344176 -8.364694455957343 -8.735807391053912
H 4.522601486254013 -6.9923081356542625 -8.380381267051082
O -10.663883396738413 0.8708640243530716 4.641336542617028
H -10.847307250906322 1.0412117407806232 3.705225063075137
H -10.621372979795035 -0.09545805717591449 4.699443715158699
O 18.898404783225658 -2.420763661984167 -8.171519529774232
H 18.320886817357568 -1.6474712686219606 -8.25788636581521
H 19.753105596596015 -2.1134541523508235 -8.509172205186363
O -1.8706301567114059 10.56846897309426 6.7249984781800185
H -2.028319962770982 11.16193691025007 7.474596430106864
H -1.6909217842472564 11.168206057409506 5.985415977803397
O 5.91891580699798 2.354373850791294 -11.562164917970918
H 6.066825013028799 1.4966851567451522 -11.988146522945543
H 6.788316692504821 2.5919919514566816 -11.206297410580742
O -5.688627704797485 9.152591603498509 2.087092058125421
H -6.461876353554531 8.80597443255634 1.6170809721886634
H -4.982796225156435 8.524672884625634 1.871495330096507
O -5.17911458530555 -14.592292441443407 -2.5781010257513275
H -5.516938373574696 -15.251425598300031 -3.2029097376877913
H -5.081220197951145 -13.790699708105407 -3.113664022124508
O 13.25453790842419 -5.8331947897399115 9.824542475983721
H 12.578640971427852 -6.143052777831547 9.203157961633085
H 12.822203314563229 -5.106152132742746 10.29725562172602
O -7.073535154621575 9.147939666106224 -8.375103885818824
H -7.532965637884126 8.294844569321679 -8.386046636446926
H -7.466770961936927 9.635061194935304 -9.114725519018032
O 3.058754230971165 -13.01079526504233 -12.038986139856043
H 2.909653513567187 -13.234457315271575 -11.108012659966915
H 2.2349744097964255 -13.272012541798572 -12.477294575605761
O -8.067750938982385 -10.604836952674694 7.618974087350081
H -8.877656231628434 -10.527565627267723 8.145329400910956
H -8.318967018697576 -11.18820873286789 6.887175076919792