194

C -5.0710522388059704 1.0783507462686561 0.47044029850746183
C -3.8153522388059704 0.1782507462686569 0.19534029850746193
C -4.11845223880597 -1.3219492537313435 0.5608402985074619
C -2.96945223880597 -2.3874492537313436 0.7034402985074619
C -2.52015223880597 0.7359507462686565 0.7384402985074618
C -2.20305223880597 0.7852507462686571 2.097440298507462
C -1.5755522388059702 1.205650746268656 -0.18965970149253808
C -0.9533522388059701 1.2695507462686564 2.508640298507462
H -2.91125223880597 0.4298507462686567 2.840840298507462
C -0.32655223880597006 1.6562507462686575 0.21554029850746192
H -1.7850522388059702 1.178550746268657 -1.2573597014925382
C 0.004447761194029898 1.6956507462686563 1.569740298507462
H -0.7158522388059702 1.2676507462686573 3.5705402985074617
H 0.3943477611940298 1.9193507462686572 -0.5551597014925382
C -1.76045223880597 -2.1592492537313435 -0.1734597014925381
C -0.5287522388059701 -1.936549253731343 0.464840298507462
C -1.8068522388059702 -2.121249253731343 -1.5681597014925381
C 0.6114477611940299 -1.614449253731343 -0.2582597014925381
H -0.4544522388059702 -1.954049253731343 1.5506402985074619
C -0.6479522388059701 -1.8270492537313432 -2.2998597014925384
H -2.74345223880597 -2.290549253731343 -2.092259701492538
C 0.5698477611940298 -1.5506492537313434 -1.6506597014925382
H 1.5072477611940298 -1.351949253731343 0.2991402985074618
H -0.7173522388059701 -1.7640492537313435 -3.3840597014925375
C 1.7791477611940298 -1.082849253731343 -2.4255597014925376
H 1.4739477611940297 -0.9102492537313429 -3.464259701492538
H 2.1252477611940295 -0.1337492537313434 -2.0010597014925384
C 1.3965477611940298 2.0964507462686566 1.997440298507462
H 1.51704776119403 1.8448507462686567 3.057640298507462
H 2.1256477611940294 1.5207507462686571 1.4165402985074618
C 3.94864776119403 -1.4275492537313434 -3.522959701492538
H 4.81734776119403 -2.087049253731343 -3.615159701492538
H 3.4305477611940303 -1.3641492537313429 -4.484459701492538
H 4.26984776119403 -0.441449253731343 -3.176459701492538
C 2.60904776119403 -3.4296492537313434 -2.8992597014925376
H 1.9825477611940296 -3.869549253731343 -2.119359701492538
H 2.06294776119403 -3.373349253731343 -3.845759701492538
H 3.5215477611940305 -4.019849253731343 -3.0234597014925377
C 3.7281477611940304 -2.060049253731343 -1.156659701492538
H 3.9048477611940298 -1.032549253731343 -0.8295597014925382
H 3.12924776119403 -2.623249253731343 -0.4404597014925382
H 4.68244776119403 -2.5769492537313434 -1.3005597014925383
C 3.1110477611940297 3.755250746268656 2.588740298507462
H 3.40124776119403 4.809350746268656 2.534540298507462
H 2.9823477611940303 3.461750746268656 3.634840298507462
H 3.86514776119403 3.1392507462686563 2.091540298507462
C 1.99744776119403 3.9574507462686572 0.40494029850746194
H 2.67914776119403 3.230350746268657 -0.04295970149253803
H 1.03214776119403 3.981150746268657 -0.10175970149253821
H 2.4399477611940297 4.958250746268657 0.368240298507462
C 0.7418477611940297 4.4992507462686575 2.475440298507462
H -0.18475223880597014 4.424250746268656 1.901240298507462
H 0.57844776119403 4.189650746268656 3.511940298507462
H 1.1210477611940297 5.524350746268658 2.4432402985074617
N 3.00114776119403 -2.025349253731343 -2.490159701492538
N 1.7831477611940298 3.586450746268657 1.862540298507462
C -3.55075223880597 -3.8435492537313434 0.6444402985074619
H -2.62515223880597 -2.2736492537313433 1.7424402985074618
H -4.67195223880597 -1.3478492537313436 1.5102402985074619
H -4.83415223880597 -1.6757492537313432 -0.1945597014925382
H -3.7169522388059697 0.17335074626865676 -0.900559701492538
H -3.9132522388059705 -4.043149253731343 -0.34225970149253815
H -4.35435223880597 -3.9354492537313432 1.3449402985074619
H -2.78115223880597 -4.545049253731343 0.8904402985074619
H -5.24235223880597 1.138950746268657 1.5249402985074618
H -5.92805223880597 0.6501507462686567 -0.006059701492538094
H -4.89895223880597 2.059650746268657 0.08004029850746197
C 2.3110429745462935 2.701225279261148 -3.843508753491008
O 2.1745947177406704 3.726769024030132 -4.492675449633005
O 3.2431781849983086 2.4694340708694518 -3.0650305911461064
O 1.5380954807494007 1.7364681033383085 -3.8645835663843755
O -3.533541836640742 -12.820139083106042 1.3039634945699135
H -3.249317013147426 -12.284789508974127 2.0599955309856828
H -2.770039041547249 -13.387271329580052 1.1185276803544113
O -6.576423503168868 0.2727126455744191 4.504497737804925
H -6.897341455163151 -0.06741114441497498 5.353199589146753
H -7.3209029888181725 0.7907179892733645 4.163348644816706
O -7.218877702503552 -3.528459610271002 -1.9881320324099074
H -7.1892538340858785 -4.203448631600117 -2.6827395506568217
H -7.070735184624405 -2.697025391828185 -2.4632455757853906
O -4.96247983144567 5.867103092275073 -5.200066029429084
H -5.005330680182379 5.814546110260558 -4.233438425175993
H -5.544311849268164 5.15235818235189 -5.49935378573646
O 9.28822595080102 -4.679517109580255 4.016318769469118
H 10.086566022291233 -4.1348270907996465 4.086556014530304
H 8.671453088114474 -4.127017573450397 3.513032128746624
O -6.513846364411826 5.0912260960670555 1.8831375935414534
H -6.984459309782562 4.839521532949721 2.6919241076818614
H -5.6926675490461385 4.578192784562524 1.9208750918859343
O 0.3384120777610287 -0.7153050226918392 4.854448215137165
H 0.4504190889668826 -0.5881491505389467 5.80852010473342
H 1.0039639939412048 -0.13134050221294027 4.460763023657036
O -0.8400339715354296 7.366448172182536 -0.9816834536614941
H -1.1882914320479874 8.142857785826793 -1.4452265583865238
H -0.4518612327703614 6.827293816707388 -1.6870886210311442
O -0.7275651965277823 -7.680363788790349 -3.3639271355491474
H -0.0009564071649417194 -7.66547398977222 -4.004852496262754
H -0.2941541959974021 -7.507415509824531 -2.514688805207178
O -1.4633245527209495 -2.7305774631506714 -8.819128043885563
H -2.2200109736560867 -2.2270688536585 -9.155092472716403
H -0.6966452113318153 -2.188341909764133 -9.058178951498812
O -1.9682021626540698 -10.24500801456187 7.248589461299673
H -2.511868072673413 -9.927950568343803 6.511792806190192
H -2.369083356052162 -11.094460711615168 7.486678370215227
O -3.528794001495162 1.2533378364402974 8.307125173371954
H -3.1680510029972195 2.1517148533904993 8.348965122587636
H -4.008480729468059 1.1545566242467278 9.1432500799644
O 1.053966320034915 -1.142807248175811 -11.20983190803472
H 0.8105846978923035 -1.8615254025589256 -11.812473557328364
H 0.22438479506874653 -0.9239901956458323 -10.759414839911297
O -3.740559810277585 -1.0480732097438723 4.532660697948951
H -4.079925009882873 -1.6721741009542879 3.873648789265027
H -3.45959998478443 -1.613567391033991 5.267670801067183
O 5.6202892980398715 6.483132644402802 2.7102221565882187
H 5.572501883463108 6.658042489938945 3.6621098946343564
H 4.7100213227003405 6.6096178138545145 2.4030159403750027
O -2.489037537687077 -6.614094453104579 -5.100327916063208
H -2.57730716262203 -6.585895706813893 -6.064890335464605
H -2.85878020950851 -7.475968003754659 -4.856552848379549
O -1.1526322935430162 -7.102286740929057 3.4339996110681454
H -1.3091416434874414 -6.793780502248643 4.339149367172205
H -0.9513554850196115 -8.04428554219492 3.5392984670178134
O -4.271651353293652 -9.65366365385471 4.907820044662751
H -4.73246386423739 -8.86747800269737 4.578379141658834
H -3.7770509468879454 -9.974495269048733 4.13879504053395
O -2.64588354931829 1.1851215891498075 -6.112135350733736
H -3.241623161756473 1.4655592704309655 -5.4012089283877565
H -1.7759783476663578 1.1465841509378567 -5.686998019633572
O -0.9646548258829647 5.093351409246356 -6.311190376794221
H -1.1014207880720899 5.476080168117393 -7.190838673342062
H -1.1743920309554532 5.819488528684078 -5.704810023481987
C -7.796366527330156 13.188146082216516 3.645472793156336
O -7.9857546924546075 12.396494621949332 2.767840554876752
O -7.606978362205705 13.979797542483697 4.523105031435919
O -11.041219024431019 5.259331793283167 4.222376466637537
H -10.975969114257273 4.8689741546737695 3.337881853820922
H -10.356061578820798 4.800908744171538 4.7316598131825405
O 8.845238785113256 6.728856802719479 -5.249361400475468
H 8.056573491561153 6.818556889588855 -4.6935482069814665
H 8.734765648664302 5.8652852412811995 -5.6748044503636805
O 6.496712102217616 -10.034207423732466 -3.218164806488714
H 6.476992013105152 -9.956326979304107 -4.183831991061659
H 7.349068222892656 -10.457092652006247 -3.0348097641374663
O 2.866615405877505 -9.69855073560082 9.917526971330789
H 2.7684715223798184 -9.90929394154806 10.85823013183312
H 2.9496532402144844 -8.73325037168497 9.90134457989592
O 19.448079715048415 14.497527341669503 -4.184618802787815
H 19.441911455449212 15.446979284569078 -4.378191315293453
H 18.557506152931847 14.203242556350384 -4.4280056140342126
O -11.974959279167127 16.949669564113936 12.209801939955868
H -11.698785214490577 16.038787761502725 12.391432291416713
H -11.550442145825121 17.15876171298832 11.364208881163297
O -3.634648548561228 17.466776834170403 6.417298634968949
H -3.170781446192602 16.760634053454655 6.891805791377755
H -4.572100268497352 17.274139260518997 6.569078021930753
O -16.13136568721206 -0.2950408736978689 2.0036125951880175
H -16.638182468989022 -0.25315038455595484 1.1787797069441648
H -15.95263435376356 0.6333698863561903 2.215910770779722
O 8.793150002000852 6.136439990329673 14.983276525425707
H 8.075716215432225 6.233437933115781 14.339189949036268
H 8.981365333328691 7.04502205932813 15.262589176853515
O -0.5199893470461063 -6.654260250876209 -18.605143099222463
H -0.19953342777815308 -7.386757777613372 -19.152612490175116
H -1.1784963868400933 -6.214991575783526 -19.16404689588525
O 5.490112670626733 -7.8489494759715495 13.656732642575268
H 5.505317326305922 -6.93200069348087 13.343777205436783
H 4.716957589890332 -8.233527672857466 13.21708189947176
O 7.494511803872962 -8.475201115346138 -15.208079772257754
H 7.401573951006885 -8.80533693859892 -14.301801530982011
H 6.814938051777799 -8.956649245510434 -15.703407096079697
O 6.166263242945237 -7.650073393830878 4.437246838338815
H 5.412594742891244 -7.773025030047856 3.8407285703218754
H 5.894019455894222 -6.917789726451907 5.010488406268187
O -7.62654384884952 13.48538743640363 11.715301650475773
H -6.906557910973013 13.785813986169902 12.29004637150905
H -7.387194670062611 13.828764778958085 10.841364630128043
O -15.043156184460285 0.14229110886002583 5.751728731455554
H -14.532591707714097 -0.5929299492570053 6.122863838507102
H -15.35997754235756 0.6239232017224241 6.530584750630545
O 15.801627337595614 11.852529021828524 -14.368347414384209
H 15.716034896387304 11.91594271464106 -13.405217104160362
H 15.510908883920468 12.720302187911809 -14.68680378065519
O 3.2397669879864606 -13.598858628512708 -5.09849703493651
H 4.18491628843068 -13.387395805360788 -5.067778454330901
H 3.0454619509896323 -13.665374478976721 -6.045483380421338
O 7.3498993295709925 -12.877860718191574 13.50516671443469
H 7.636912010352516 -13.688462763351657 13.058495244164991
H 8.120859237303002 -12.293631459960292 13.448079598581955
O -13.784225635562994 -0.9054083443310379 18.874178061782757
H -13.547691941832412 -1.1346571372986975 19.785476124741876
H -14.600383359166493 -0.39127812392956507 18.96647449168276
O -4.32824058186606 9.364665530531935 -4.3984259817271605
H -4.26149364476824 10.243668596088975 -4.80075148928216
H -5.282063477585177 9.200169358374923 -4.352330024771147