194

C -5.0710522388059704 1.0783507462686561 0.47044029850746183
C -3.8153522388059704 0.1782507462686569 0.19534029850746193
C -4.11845223880597 -1.3219492537313435 0.5608402985074619
C -2.96945223880597 -2.3874492537313436 0.7034402985074619
C -2.52015223880597 0.7359507462686565 0.7384402985074618
C -2.20305223880597 0.7852507462686571 2.097440298507462
C -1.5755522388059702 1.205650746268656 -0.18965970149253808
C -0.9533522388059701 1.2695507462686564 2.508640298507462
H -2.91125223880597 0.4298507462686567 2.840840298507462
C -0.32655223880597006 1.6562507462686575 0.21554029850746192
H -1.7850522388059702 1.178550746268657 -1.2573597014925382
C 0.004447761194029898 1.6956507462686563 1.569740298507462
H -0.7158522388059702 1.2676507462686573 3.5705402985074617
H 0.3943477611940298 1.9193507462686572 -0.5551597014925382
C -1.76045223880597 -2.1592492537313435 -0.1734597014925381
C -0.5287522388059701 -1.936549253731343 0.464840298507462
C -1.8068522388059702 -2.121249253731343 -1.5681597014925381
C 0.6114477611940299 -1.614449253731343 -0.2582597014925381
H -0.4544522388059702 -1.954049253731343 1.5506402985074619
C -0.6479522388059701 -1.8270492537313432 -2.2998597014925384
H -2.74345223880597 -2.290549253731343 -2.092259701492538
C 0.5698477611940298 -1.5506492537313434 -1.6506597014925382
H 1.5072477611940298 -1.351949253731343 0.2991402985074618
H -0.7173522388059701 -1.7640492537313435 -3.3840597014925375
C 1.7791477611940298 -1.082849253731343 -2.4255597014925376
H 1.4739477611940297 -0.9102492537313429 -3.464259701492538
H 2.1252477611940295 -0.1337492537313434 -2.0010597014925384
C 1.3965477611940298 2.0964507462686566 1.997440298507462
H 1.51704776119403 1.8448507462686567 3.057640298507462
H 2.1256477611940294 1.5207507462686571 1.4165402985074618
C 3.94864776119403 -1.4275492537313434 -3.522959701492538
H 4.81734776119403 -2.087049253731343 -3.615159701492538
H 3.4305477611940303 -1.3641492537313429 -4.484459701492538
H 4.26984776119403 -0.441449253731343 -3.176459701492538
C 2.60904776119403 -3.4296492537313434 -2.8992597014925376
H 1.9825477611940296 -3.869549253731343 -2.119359701492538
H 2.06294776119403 -3.373349253731343 -3.845759701492538
H 3.5215477611940305 -4.019849253731343 -3.0234597014925377
C 3.7281477611940304 -2.060049253731343 -1.156659701492538
H 3.9048477611940298 -1.032549253731343 -0.8295597014925382
H 3.12924776119403 -2.623249253731343 -0.4404597014925382
H 4.68244776119403 -2.5769492537313434 -1.3005597014925383
C 3.1110477611940297 3.755250746268656 2.588740298507462
H 3.40124776119403 4.809350746268656 2.534540298507462
H 2.9823477611940303 3.461750746268656 3.634840298507462
H 3.86514776119403 3.1392507462686563 2.091540298507462
C 1.99744776119403 3.9574507462686572 0.40494029850746194
H 2.67914776119403 3.230350746268657 -0.04295970149253803
H 1.03214776119403 3.981150746268657 -0.10175970149253821
H 2.4399477611940297 4.958250746268657 0.368240298507462
C 0.7418477611940297 4.4992507462686575 2.475440298507462
H -0.18475223880597014 4.424250746268656 1.901240298507462
H 0.57844776119403 4.189650746268656 3.511940298507462
H 1.1210477611940297 5.524350746268658 2.4432402985074617
N 3.00114776119403 -2.025349253731343 -2.490159701492538
N 1.7831477611940298 3.586450746268657 1.862540298507462
C -3.55075223880597 -3.8435492537313434 0.6444402985074619
H -2.62515223880597 -2.2736492537313433 1.7424402985074618
H -4.67195223880597 -1.3478492537313436 1.5102402985074619
H -4.83415223880597 -1.6757492537313432 -0.1945597014925382
H -3.7169522388059697 0.17335074626865676 -0.900559701492538
H -3.9132522388059705 -4.043149253731343 -0.34225970149253815
H -4.35435223880597 -3.9354492537313432 1.3449402985074619
H -2.78115223880597 -4.545049253731343 0.8904402985074619
H -5.24235223880597 1.138950746268657 1.5249402985074618
H -5.92805223880597 0.6501507462686567 -0.006059701492538094
H -4.89895223880597 2.059650746268657 0.08004029850746197
C 2.653828612187457 1.1827814308292617 -3.737421432177797
O 3.0228331323233677 0.9410088067986875 -4.87634950760163
O 3.4007425677961756 1.3416950326884063 -2.765054487983842
O 1.4763686978789394 1.305953447630065 -3.380959388092032
O 0.0018502115533420849 -6.8343910198948485 -6.321837347417993
H -0.11910588670250588 -7.125870553028329 -5.405662330863289
H -0.6023746672099288 -7.397681301601356 -6.828372932267186
O 6.911995553238839 -2.3542038838252974 -3.739986590265555
H 7.257336443207794 -1.6688489942466624 -4.331590936045831
H 7.165787770641034 -3.184482942192926 -4.170321506258021
O 6.9332997258293405 1.0839995599031806 -6.440081108385899
H 5.9705756243228025 1.1132572923536421 -6.546258537109186
H 7.2018020128035865 2.01410158919845 -6.482255523502415
O 0.07903675808330846 -0.11114362220145035 5.968674205334609
H -0.23514444651547572 0.787393898343208 5.787324124688594
H -0.7290894921516993 -0.6458321286114888 5.9701264773842855
O 6.968227786838723 0.4210486975737395 6.054524835881945
H 7.421180556584609 0.0237429150921602 6.813438045996403
H 7.512933530770182 0.16337292574277795 5.2956699133576235
O -0.6595955786902166 -8.969468385586636 5.067354540176295
H -0.23192258765137108 -8.183760976460452 5.439815325870718
H -0.6137189372584491 -8.829115263384296 4.109670730582025
O 2.5190521015419756 -9.200230637226435 -3.63148512524396
H 2.220388456018675 -9.844498766716766 -2.972177942615285
H 3.473195248236235 -9.132171442853531 -3.4767571511161757
O 3.370640999004002 9.966785952171177 -2.705297615681934
H 2.5546179233354134 9.58245969069541 -3.059369672778283
H 3.3304754586339085 10.895192022202096 -2.979907962895072
O 1.7561588583233279 -1.8789596583429016 -8.08822074480106
H 2.3303426038083543 -1.92332792971006 -8.867522894045292
H 2.0369836292565577 -1.0690541326650074 -7.63638843983968
O -4.0660403086805035 2.2614467279784725 8.626327900948269
H -4.678128593866868 2.8757812965119256 9.058656856654956
H -4.573122832829108 1.4390294521975822 8.552442296800923
O 0.3385832051863331 9.21500841822543 -7.766908828389275
H -0.14238817230000267 9.329957193700066 -6.933589759871232
H 0.4892528419730251 10.120593620096093 -8.077031460590538
O 5.449610624595286 -4.082468063826249 10.507900362653238
H 5.719132717231242 -5.002708493833969 10.647480982584305
H 4.648605383326194 -3.989118371015224 11.045151125902144
O -0.006593984314841261 7.244645771113788 0.571462148438909
H -0.449492344039256 6.5050522713542405 1.0139662218290293
H 0.8541924251739337 7.299999010080942 1.012987595582408
O 7.8702501893996475 1.4770701031583309 -2.8402812096554397
H 7.631969453399912 1.673308444629238 -1.9217605723869167
H 7.44865432623577 2.1865048037515353 -3.3481407158747634
O -2.883143220749226 6.853456200112987 -7.25095911576014
H -2.865899306352845 6.67151169668 -6.299346693611913
H -2.018922508864291 6.54637628427114 -7.5636673355684145
O 0.013027679818883975 -11.930419722667246 -1.1408068798860613
H -0.5563366803250838 -12.488624850754631 -1.6914416202310552
H 0.38181936056387356 -11.286040990692886 -1.7634871271176555
O 3.66599183728516 -5.406754018728012 -4.765442929386332
H 4.325025964004968 -5.981601185646796 -5.182806214072598
H 3.4635715514479775 -5.851721204237678 -3.9287875785989246
O -6.820844937512368 2.8668021286787635 -2.5299047498656115
H -7.096378555845844 2.7105267717861037 -1.614139171294253
H -7.630541187742487 2.730456333267385 -3.0444567401804123
O 1.442464106608083 1.8313994042273394 -7.486413360659041
H 0.6241581300519232 1.8240994925748022 -6.967482347014322
H 1.7985293042067592 2.722142429241581 -7.349459416767335
O -2.33665752493693 11.995528068958857 0.9045493028502829
H -1.6156168776291953 12.64268439205338 0.9205629004730547
H -1.892669526226718 11.146766836340847 1.0509766613119362
C 18.496972821070013 3.816873226441343 3.780671267099595
O 17.972486191939915 3.7594748757549628 2.706223752093754
O 19.021459450200116 3.8742715771277254 4.8551187821054365
O -16.149804123921662 6.709307133866886 0.24951157431446103
H -15.2021710354831 6.902352703486453 0.18874731963580374
H -16.24727938544063 6.285499715214591 1.115449094916892
O -0.27569596014108466 -5.153126592346674 18.333478017299097
H 0.20332696256775762 -4.869602433975326 19.12664789068014
H -1.1207781320971222 -5.481650478718224 18.67534074271004
O 9.307658571723211 7.285523618792617 -9.382010924932537
H 9.3337622467459 7.350955444550323 -10.348450075230334
H 10.198137489237602 6.986997821201673 -9.143491345159541
O 9.716294321978754 -10.067499430292322 12.41400330351676
H 9.431962974495782 -10.150637747672066 11.491392301023408
H 9.544902037390353 -10.943301600570074 12.791570764535777
O 2.165883790135948 14.361646772052948 0.8495376501674023
H 1.3005760422472947 14.77505607539295 0.988471469865126
H 2.772260294935985 14.90602921672451 1.373863152751345
O -11.325969364236137 13.618804012033728 -9.793140119092357
H -10.371002760883925 13.642317305352599 -9.955784726808805
H -11.457251560461184 14.258283245779857 -9.077044288311452
O 7.798584896668071 -16.646685681243955 -3.994803406423476
H 7.574445987311284 -16.28724002214043 -4.866312399127501
H 8.402135680961614 -17.378746640836813 -4.191717465135986
O -3.893746841152905 14.120887303371308 -6.142120870335411
H -4.704532858738594 14.361660414022433 -6.61500743154742
H -4.109762876163096 14.280179519479088 -5.211032793510267
O 11.0535983189399 4.983164020676793 -11.482960943496781
H 11.527820982497667 4.6151022158987995 -10.72229628010578
H 11.745863822361077 5.420519938705155 -12.001082761256454
O 13.83287621077936 -3.9839232993320817 9.75680390115557
H 12.917064762381733 -4.27296208848522 9.8860839315111
H 14.32915154827039 -4.469277128274003 10.432898860780018
O -1.2778949531637296 9.552449751208231 6.10047973982087
H -0.744016202956661 10.342337072436687 5.927220232895924
H -2.1858138529880904 9.839626995057811 5.921107372225746
O -0.16352757219241987 -16.1673357489053 2.9933490160597716
H -0.48329094307471365 -15.664743538942684 3.757626330931074
H 0.0604940495670645 -15.485703945411938 2.342077688769341
O -4.3539649372687546 -3.735034235187679 8.330632233129412
H -4.386008317268816 -2.957869052436892 8.908520507295023
H -4.0587035757829915 -4.449299071999415 8.915105000337496
O 13.813542422414898 -9.227191374744656 -7.955030058268766
H 13.527962735311593 -9.093861428731676 -7.038714214953725
H 13.292318048684889 -8.583979439524693 -8.458582938233073
O -17.93549496333287 1.084606103938091 9.420566234019013
H -18.083690299035062 0.9533952784695003 10.369138434041746
H -17.806213630168966 2.041030645313233 9.33396151214594
O -13.953425978652282 -0.4542873476030831 -10.472344752444751
H -14.2461550617537 -0.5446395183303352 -11.391645315944785
H -14.60181695786098 0.14851362811239777 -10.078413202480483
O -4.430156415873407 19.25325115925534 11.447335879853142
H -4.490451620503279 19.21816077760279 10.48084712652276
H -3.706979070184686 19.87623600543781 11.614268058924822
O -15.922541064590417 -0.45329414262930534 14.759798393496693
H -15.856980794149393 -0.29659918452659895 15.71379834000869
H -15.616579553591833 0.37690195435093266 14.36467317455181
O -5.853849375258696 18.037930792771775 -11.301928376326035
H -5.451120716746111 18.91924362250852 -11.309970804694556
H -5.642900896405998 17.69222138733064 -10.42161724351033
O 17.46369957687537 -8.071852989647432 6.460320777805119
H 17.482878146886783 -8.460504295559428 7.347760748600454
H 16.924399443707216 -8.69069146261026 5.945387524804454