194

C -5.0710522388059704 1.0783507462686561 0.47044029850746183
C -3.8153522388059704 0.1782507462686569 0.19534029850746193
C -4.11845223880597 -1.3219492537313435 0.5608402985074619
C -2.96945223880597 -2.3874492537313436 0.7034402985074619
C -2.52015223880597 0.7359507462686565 0.7384402985074618
C -2.20305223880597 0.7852507462686571 2.097440298507462
C -1.5755522388059702 1.205650746268656 -0.18965970149253808
C -0.9533522388059701 1.2695507462686564 2.508640298507462
H -2.91125223880597 0.4298507462686567 2.840840298507462
C -0.32655223880597006 1.6562507462686575 0.21554029850746192
H -1.7850522388059702 1.178550746268657 -1.2573597014925382
C 0.004447761194029898 1.6956507462686563 1.569740298507462
H -0.7158522388059702 1.2676507462686573 3.5705402985074617
H 0.3943477611940298 1.9193507462686572 -0.5551597014925382
C -1.76045223880597 -2.1592492537313435 -0.1734597014925381
C -0.5287522388059701 -1.936549253731343 0.464840298507462
C -1.8068522388059702 -2.121249253731343 -1.5681597014925381
C 0.6114477611940299 -1.614449253731343 -0.2582597014925381
H -0.4544522388059702 -1.954049253731343 1.5506402985074619
C -0.6479522388059701 -1.8270492537313432 -2.2998597014925384
H -2.74345223880597 -2.290549253731343 -2.092259701492538
C 0.5698477611940298 -1.5506492537313434 -1.6506597014925382
H 1.5072477611940298 -1.351949253731343 0.2991402985074618
H -0.7173522388059701 -1.7640492537313435 -3.3840597014925375
C 1.7791477611940298 -1.082849253731343 -2.4255597014925376
H 1.4739477611940297 -0.9102492537313429 -3.464259701492538
H 2.1252477611940295 -0.1337492537313434 -2.0010597014925384
C 1.3965477611940298 2.0964507462686566 1.997440298507462
H 1.51704776119403 1.8448507462686567 3.057640298507462
H 2.1256477611940294 1.5207507462686571 1.4165402985074618
C 3.94864776119403 -1.4275492537313434 -3.522959701492538
H 4.81734776119403 -2.087049253731343 -3.615159701492538
H 3.4305477611940303 -1.3641492537313429 -4.484459701492538
H 4.26984776119403 -0.441449253731343 -3.176459701492538
C 2.60904776119403 -3.4296492537313434 -2.8992597014925376
H 1.9825477611940296 -3.869549253731343 -2.119359701492538
H 2.06294776119403 -3.373349253731343 -3.845759701492538
H 3.5215477611940305 -4.019849253731343 -3.0234597014925377
C 3.7281477611940304 -2.060049253731343 -1.156659701492538
H 3.9048477611940298 -1.032549253731343 -0.8295597014925382
H 3.12924776119403 -2.623249253731343 -0.4404597014925382
H 4.68244776119403 -2.5769492537313434 -1.3005597014925383
C 3.1110477611940297 3.755250746268656 2.588740298507462
H 3.40124776119403 4.809350746268656 2.534540298507462
H 2.9823477611940303 3.461750746268656 3.634840298507462
H 3.86514776119403 3.1392507462686563 2.091540298507462
C 1.99744776119403 3.9574507462686572 0.40494029850746194
H 2.67914776119403 3.230350746268657 -0.04295970149253803
H 1.03214776119403 3.981150746268657 -0.10175970149253821
H 2.4399477611940297 4.958250746268657 0.368240298507462
C 0.7418477611940297 4.4992507462686575 2.475440298507462
H -0.18475223880597014 4.424250746268656 1.901240298507462
H 0.57844776119403 4.189650746268656 3.511940298507462
H 1.1210477611940297 5.524350746268658 2.4432402985074617
N 3.00114776119403 -2.025349253731343 -2.490159701492538
N 1.7831477611940298 3.586450746268657 1.862540298507462
C -3.55075223880597 -3.8435492537313434 0.6444402985074619
H -2.62515223880597 -2.2736492537313433 1.7424402985074618
H -4.67195223880597 -1.3478492537313436 1.5102402985074619
H -4.83415223880597 -1.6757492537313432 -0.1945597014925382
H -3.7169522388059697 0.17335074626865676 -0.900559701492538
H -3.9132522388059705 -4.043149253731343 -0.34225970149253815
H -4.35435223880597 -3.9354492537313432 1.3449402985074619
H -2.78115223880597 -4.545049253731343 0.8904402985074619
H -5.24235223880597 1.138950746268657 1.5249402985074618
H -5.92805223880597 0.6501507462686567 -0.006059701492538094
H -4.89895223880597 2.059650746268657 0.08004029850746197
C -0.1143686941210218 -5.126235218939512 -0.9244833473840802
O -0.2141321755796981 -5.253519475145318 -2.1351118884689906
O 0.54708898224535 -4.252525232547975 -0.3520009754670916
O -0.6594367615108094 -5.851448752652485 -0.08447470645739023
O -3.691570720511467 4.8653277554545316 -2.766497713254794
H -4.198302818859275 5.680051359912977 -2.6307944128444283
H -3.854788516365904 4.351336187192306 -1.9614296644714893
O -2.7616871103682397 2.7978932723079355 6.43255436752599
H -2.8071265993933863 2.9436770960548304 7.389450227309525
H -3.110596502223615 3.6187759255793126 6.053904331036812
O 5.628831371258467 2.716416676002927 -1.828743462849335
H 5.581846546867354 2.5702437907168054 -0.8719815955155311
H 4.7031622273782805 2.82194284797908 -2.095131914919202
O -9.161380810905301 -0.10861967645998849 -1.9248830839230093
H -9.597241808755715 -0.7041827964894365 -2.552813906158732
H -8.32984555525048 -0.5590588313986808 -1.7136589598244893
O -8.686213677949064 -2.160608537395001 5.551183733144146
H -7.759244418104277 -1.8894287783479657 5.629649563197745
H -8.67225779318163 -2.8467209254252896 4.867066076178817
O -7.783838273868012 -5.892448453659619 -2.3046209588295112
H -6.8678835954421125 -6.042458792949278 -2.0262483989822617
H -8.310822552053171 -6.205841115220427 -1.554264673771873
O 3.8124033789701315 -9.509670227058798 1.3616891955409844
H 3.1612433281332475 -9.082415713561147 0.7851377877810215
H 3.9650465346853148 -8.85991713220303 2.064172595372369
O -1.7757539434569583 2.669969426466108 -9.78346492867827
H -2.420110401758417 2.4653156427258818 -9.089282718919184
H -1.3227707286125923 1.8274403852081091 -9.938103106390438
O 1.6685443729269205 9.508038178137749 2.798518863368028
H 1.3905554431219929 10.043162856395853 3.5570246909824723
H 1.339757821185519 10.000568532760978 2.0315278611595833
O -2.9316874049003783 -7.619711460712992 -4.438569330171453
H -2.4100120163562657 -8.414819922600714 -4.252492250116194
H -3.684622967352641 -7.686582505255353 -3.832287014334592
O -7.507925151321218 -3.044371152965807 -0.7134159762198355
H -7.3906049631477 -3.590892496760104 -1.5049447193013532
H -6.612388478566812 -2.738127665103795 -0.5055916797719036
O -0.7811337469009384 -0.3910675497114972 -5.817831301925107
H -1.0549978546397099 0.46620395061477427 -5.458594079298065
H -1.5190444562633647 -0.9813063315763236 -5.603196939133485
O -0.8633074558007584 -5.59285793185928 7.581506790041278
H -1.1866161737291518 -5.208611520514377 8.41023685778352
H -0.09292753710240492 -5.049819750265131 7.356592898746771
O -5.350095291474035 2.91926863185657 8.993232039179059
H -4.398283550472621 2.9871635019666694 8.824673286203742
H -5.644325002943391 2.216640670403929 8.394312370965062
O 4.813170425897265 -2.491102806155521 4.717346932024023
H 4.631124545164679 -2.585640064036868 5.664389360366373
H 5.630705413552992 -1.9718066811780748 4.6868506561504235
O -0.009562104425196782 1.248419437982552 11.460797919706
H 0.13810322015107257 0.515879547009459 10.84391250331904
H -0.9639286101319988 1.2256730768062534 11.627018015176505
O -0.1317543519235853 2.328021345739343 -4.830802785718846
H -0.3565017927196061 2.69710446179926 -3.9634887721141183
H 0.5419514223676386 1.6600783413645315 -4.633484218692292
O 3.232284864610872 -0.13318992998684687 -10.276882786779366
H 2.4048389917790898 -0.14160759502002196 -9.772670701096127
H 3.2222600799759022 0.723894856704226 -10.728841984512677
O 3.802577904135447 -6.984817174721097 -2.1573908165528337
H 3.6411197102619233 -6.924030785157273 -1.2038691212700803
H 3.0551527222900328 -7.504996076893959 -2.4886481962103804
O 6.345813804385085 0.36339328361398415 7.139185572001734
H 6.693760916125119 0.42962888883209915 6.237236011919153
H 5.944764241948173 1.2307912373877428 7.29962865399113
C -17.29288448423261 -12.17365020338542 1.660839227800567
O -17.885407173704255 -12.781884937012865 2.504513115372319
O -16.700361794760965 -11.565415469757976 0.8171653402288115
O 0.05857815063223626 15.250357972824013 2.2694555406461063
H -0.3806167371494662 15.862290621721572 1.6598543261955143
H -0.30972628090540344 14.384551381056735 2.037738610617102
O 10.324751624241395 -14.643557222198416 -7.298958413904213
H 10.019279047721536 -13.784486617134645 -7.627061381598327
H 10.168813019899419 -15.246535122779086 -8.041294420970557
O -10.33328717603042 6.305728770857081 -16.413755581504848
H -10.021571602455431 6.816215487063042 -15.651388169643564
H -9.708230630733624 5.567619258784152 -16.472582511299766
O -3.711828322869665 15.977281386870413 7.694360367803032
H -3.48274324037571 16.445190368379265 8.511396821642201
H -4.546960510765674 16.383754628531964 7.418143646996389
O 1.7588231975760609 3.6267384812896477 12.192023092907057
H 1.709916184836233 4.236438488859381 12.943582379839455
H 0.8358385468714051 3.519599451493275 11.917100363475866
O -9.896526547712117 13.011629606494333 -16.625013145572964
H -10.48838694803122 12.82098950759868 -15.881827451330153
H -10.311583731692153 13.767607472031475 -17.06681281187486
O -10.402480041444097 -3.875111423379323 11.552009288159791
H -11.019167657348797 -3.233139344830416 11.169209612541623
H -10.719640191151257 -3.9915257796830894 12.460204796508135
O -12.506327901262397 -12.797741645733744 17.94302899025512
H -12.728595135938848 -13.739951496937639 17.90054099684977
H -11.55665616954413 -12.78973177883716 18.135438419097703
O -13.890257175256803 -6.011550473992357 14.213241759729327
H -13.276212374373907 -6.397924452860105 13.570877775789851
H -13.703592939908628 -6.4920383866077795 15.033759750618227
O 11.25330478307965 -5.639721065981649 8.661850220383087
H 12.123897194177665 -6.035245419412957 8.505016880556068
H 11.450106234625201 -4.827744220401883 9.15269106547638
O -4.182382496631054 4.356846467151278 -18.640233287082456
H -3.244839180389328 4.1778547031242805 -18.807391402293685
H -4.536912606200771 3.5011329791032573 -18.355584780883717
O -9.583303565810555 1.8488021265508858 -6.501954189244035
H -9.220194276266133 1.8304974369289173 -7.400165711706529
H -8.979320313512492 2.431153185809874 -6.017151735637013
O -6.112199878811349 10.945992139686076 19.248425914933936
H -5.619229933662769 11.170461815427368 18.444957586527142
H -5.541533406722348 10.30800622492659 19.702601755883222
O 8.549162967157008 -6.118217763400083 -17.399336446464023
H 8.79216705649199 -6.090274290047523 -16.46171417083088
H 7.8410424653191715 -5.4613676094146175 -17.477279851484592
O 3.003659747552361 -19.452297426114058 -0.053831065144907875
H 3.110931400876638 -20.10062905720064 -0.7659590349829717
H 3.522798595072718 -19.819629549797785 0.6772803574202428
O -1.7284483463919869 3.5498773671285977 -6.575232959790402
H -1.6808708659356353 3.3005876114400907 -5.6400547104912695
H -1.1077237652889453 2.9462071686363256 -7.010256212234169
O -14.989487054660344 1.8807716272325616 -7.094590479678491
H -14.504399469610833 1.6665107362806528 -6.283572808884984
H -15.81555736272822 1.3809921372342386 -7.012187495474911
O 7.2255902037205635 -10.072013031543905 13.618579386887296
H 7.1381033699968715 -10.115844956544583 12.654529505825256
H 6.428027636060262 -9.602006905888311 13.90484873001248
O 18.769484387982533 6.45196655147271 8.630500270046252
H 18.988703131111667 6.239338835122835 9.55011973145446
H 17.80435664033135 6.53844531046429 8.633935274707268
O 2.853311770008779 -11.15113205831039 4.133370365439816
H 2.7399557809845017 -11.783526482553007 4.8587634098227745
H 2.8053322404262944 -11.69901359863199 3.3355698096516715