194

C -5.0710522388059704 1.0783507462686561 0.47044029850746183
C -3.8153522388059704 0.1782507462686569 0.19534029850746193
C -4.11845223880597 -1.3219492537313435 0.5608402985074619
C -2.96945223880597 -2.3874492537313436 0.7034402985074619
C -2.52015223880597 0.7359507462686565 0.7384402985074618
C -2.20305223880597 0.7852507462686571 2.097440298507462
C -1.5755522388059702 1.205650746268656 -0.18965970149253808
C -0.9533522388059701 1.2695507462686564 2.508640298507462
H -2.91125223880597 0.4298507462686567 2.840840298507462
C -0.32655223880597006 1.6562507462686575 0.21554029850746192
H -1.7850522388059702 1.178550746268657 -1.2573597014925382
C 0.004447761194029898 1.6956507462686563 1.569740298507462
H -0.7158522388059702 1.2676507462686573 3.5705402985074617
H 0.3943477611940298 1.9193507462686572 -0.5551597014925382
C -1.76045223880597 -2.1592492537313435 -0.1734597014925381
C -0.5287522388059701 -1.936549253731343 0.464840298507462
C -1.8068522388059702 -2.121249253731343 -1.5681597014925381
C 0.6114477611940299 -1.614449253731343 -0.2582597014925381
H -0.4544522388059702 -1.954049253731343 1.5506402985074619
C -0.6479522388059701 -1.8270492537313432 -2.2998597014925384
H -2.74345223880597 -2.290549253731343 -2.092259701492538
C 0.5698477611940298 -1.5506492537313434 -1.6506597014925382
H 1.5072477611940298 -1.351949253731343 0.2991402985074618
H -0.7173522388059701 -1.7640492537313435 -3.3840597014925375
C 1.7791477611940298 -1.082849253731343 -2.4255597014925376
H 1.4739477611940297 -0.9102492537313429 -3.464259701492538
H 2.1252477611940295 -0.1337492537313434 -2.0010597014925384
C 1.3965477611940298 2.0964507462686566 1.997440298507462
H 1.51704776119403 1.8448507462686567 3.057640298507462
H 2.1256477611940294 1.5207507462686571 1.4165402985074618
C 3.94864776119403 -1.4275492537313434 -3.522959701492538
H 4.81734776119403 -2.087049253731343 -3.615159701492538
H 3.4305477611940303 -1.3641492537313429 -4.484459701492538
H 4.26984776119403 -0.441449253731343 -3.176459701492538
C 2.60904776119403 -3.4296492537313434 -2.8992597014925376
H 1.9825477611940296 -3.869549253731343 -2.119359701492538
H 2.06294776119403 -3.373349253731343 -3.845759701492538
H 3.5215477611940305 -4.019849253731343 -3.0234597014925377
C 3.7281477611940304 -2.060049253731343 -1.156659701492538
H 3.9048477611940298 -1.032549253731343 -0.8295597014925382
H 3.12924776119403 -2.623249253731343 -0.4404597014925382
H 4.68244776119403 -2.5769492537313434 -1.3005597014925383
C 3.1110477611940297 3.755250746268656 2.588740298507462
H 3.40124776119403 4.809350746268656 2.534540298507462
H 2.9823477611940303 3.461750746268656 3.634840298507462
H 3.86514776119403 3.1392507462686563 2.091540298507462
C 1.99744776119403 3.9574507462686572 0.40494029850746194
H 2.67914776119403 3.230350746268657 -0.04295970149253803
H 1.03214776119403 3.981150746268657 -0.10175970149253821
H 2.4399477611940297 4.958250746268657 0.368240298507462
C 0.7418477611940297 4.4992507462686575 2.475440298507462
H -0.18475223880597014 4.424250746268656 1.901240298507462
H 0.57844776119403 4.189650746268656 3.511940298507462
H 1.1210477611940297 5.524350746268658 2.4432402985074617
N 3.00114776119403 -2.025349253731343 -2.490159701492538
N 1.7831477611940298 3.586450746268657 1.862540298507462
C -3.55075223880597 -3.8435492537313434 0.6444402985074619
H -2.62515223880597 -2.2736492537313433 1.7424402985074618
H -4.67195223880597 -1.3478492537313436 1.5102402985074619
H -4.83415223880597 -1.6757492537313432 -0.1945597014925382
H -3.7169522388059697 0.17335074626865676 -0.900559701492538
H -3.9132522388059705 -4.043149253731343 -0.34225970149253815
H -4.35435223880597 -3.9354492537313432 1.3449402985074619
H -2.78115223880597 -4.545049253731343 0.8904402985074619
H -5.24235223880597 1.138950746268657 1.5249402985074618
H -5.92805223880597 0.6501507462686567 -0.006059701492538094
H -4.89895223880597 2.059650746268657 0.08004029850746197
C -1.61347979574022 1.2878876324445083 -3.868394443773259
O -1.4043100498365022 2.414720327072079 -4.2906166534175885
O -2.7278691092877234 0.7639850034144915 -3.757516324892389
O -0.7431233298135373 0.4970672458795107 -3.4866469843019443
O -0.15939794548440878 8.95237642141288 -0.005182111908498044
H -0.6172605561196907 8.13872026364903 0.2542265302282203
H 0.7792321336546322 8.714363100604205 0.030667266789918823
O -0.4173358512214411 -6.361229820184878 5.875575782739967
H -0.7482241536517731 -7.19427757544253 6.2436949559365855
H 0.49596715260857466 -6.563474796328989 5.622719030566849
O -2.864600221453603 -6.799372346807941 -7.787198003391372
H -2.4836687763030976 -6.921402777374773 -6.904606838122184
H -3.7730528816485256 -6.511167549495102 -7.612230282680857
O -4.030034024296334 -2.179502101501935 4.921980072681486
H -3.1757621615516545 -1.7481519812045483 4.769914247651119
H -3.8798092266435864 -3.0979566228173825 4.652099086420127
O 3.832644572279272 -9.529005948041291 2.7181659333852903
H 2.8991053938050433 -9.270699099299337 2.6907883687261718
H 4.151070490544822 -9.167134776793953 3.5587705576271613
O -9.35475641265977 -0.9236022352739917 -4.386490190054259
H -9.541059908596342 -1.0257866472203623 -5.3319089915686915
H -10.232309899717869 -0.8595200758274588 -3.980589588314324
O 3.1674438865740875 -2.699173729373932 5.398534235083925
H 2.7826555037780167 -3.1617356307252735 4.638967421180488
H 4.109624494751294 -2.6357399461922975 5.181200848265213
O 8.061038440355905 -3.616759101524262 -7.067969369955109
H 8.684391522946987 -4.35815977951262 -7.094864090674991
H 8.362392241797565 -3.031676399342642 -7.779183868024794
O -3.1948984722032607 5.649241193081227 -1.8263157388629614
H -3.4340271755876084 5.832547216736814 -2.7472846426861572
H -3.503440821094589 4.742331422361563 -1.6804451420525484
O 1.7091254901667565 -6.50355402087001 -1.92942477778539
H 1.0515791313306404 -6.74145659059365 -1.258602513545259
H 1.9785382285366861 -7.355030879658672 -2.3054113196341754
O -6.500196341972794 -7.824082689072679 4.106859595887655
H -6.848156351258529 -8.52756257638796 3.5385223395153904
H -5.5479460842211905 -8.0002104293665 4.140924387256389
O -1.8619834481711899 -3.861489059460473 7.535497641101617
H -2.4458929343371048 -4.1413198049201245 8.256408053539218
H -1.622744168785175 -4.689776350500981 7.093155381081577
O -7.782202275395621 6.165776263219403 0.7059194713694588
H -7.192130405113779 6.551522130817781 1.370737243719796
H -8.36689886413466 6.897947044549735 0.4589016777126833
O 7.475601487016274 -0.04806487264759651 0.35964379411937
H 6.668685577058744 -0.1321122553448788 0.8895401128640361
H 8.189777441260466 -0.08295341751514851 1.0136296044519955
O -7.839934821689438 -1.4165045024453682 -7.3469795473735005
H -7.8565892460886095 -1.393634520161009 -6.378389360060906
H -7.680184646211614 -2.349026105196639 -7.556372207552898
O 6.308934449888505 2.9627296419362765 0.25186767513905517
H 7.026325001208262 2.3257934020931135 0.11537452457247399
H 5.9959589874918455 2.7739885309131274 1.1493001780312468
O 2.154074524833061 5.644953869814591 -6.45226137870346
H 2.8669864356834824 5.836425322106923 -7.080005472442834
H 2.165796387956254 6.401495350516787 -5.846894109847728
O 4.419312479181255 -3.385680529228628 -6.94716844347389
H 5.070616978391965 -4.063859694886991 -7.181353894505357
H 4.492769370434266 -2.7342830580739883 -7.660784141171736
O -8.16448814247073 -3.1501624373051222 2.34095880784444
H -8.496128661104848 -3.309559659518249 3.237381949475018
H -7.210331639511896 -3.302592361048744 2.413845229823289
O -10.048063292883315 -3.9615164453849707 -2.897413156328666
H -10.2672411783293 -4.327335464913913 -3.7675308819165956
H -9.275805169169937 -3.40126755872154 -3.0668254334843557
C -12.292766237073673 15.07356393955808 -13.178602672541418
O -12.116295398297735 15.394395910374131 -14.31822679779676
O -12.46923707584961 14.752731968742028 -12.038978547286076
O 6.293821724890585 -7.272332522542324 -9.757849793551495
H 6.7718041081673475 -6.435851845363697 -9.653925422570223
H 5.641535060469324 -7.084816536823516 -10.449457924517354
O 5.454260596696193 -10.679961106567834 7.6574928613855135
H 4.928478345464708 -11.294012994831824 7.1232076756378815
H 6.171923276286488 -10.409700756050224 7.065140292756513
O -9.34436790053999 3.216212292920739 12.442824914096791
H -10.028939972815579 3.040299660132523 11.779965064365474
H -8.944258062700854 2.348171234100654 12.602132108431656
O -3.6981416840452286 15.966758362083542 -2.197075398844288
H -4.099152001317204 16.525083283612805 -2.88003320452541
H -3.970683544902245 15.06889005747334 -2.438974935753709
O -12.877832408621387 4.111046760308728 15.290179369124273
H -12.835846726509144 4.414577092886952 14.370900360007603
H -12.692352272396837 3.1617492647010117 15.23192708849047
O 0.5985366715376861 0.15012619812921013 -15.574542287360195
H 0.032764939495560697 -0.38788070868940716 -15.000592574983305
H 0.41927828241683507 -0.18906737747068325 -16.464360298248693
O -8.39880507150362 -6.266294021719338 9.629966290399324
H -9.249795045899624 -6.360002757615334 10.083840825038868
H -8.634211769830413 -5.899025573287279 8.764715160686578
O 6.730313363379418 -18.011829361944017 -8.000342693716664
H 6.735308315960241 -18.001973538093704 -7.031402411715267
H 6.524242896928481 -17.096527569765158 -8.242663836811651
O -3.467758671718166 7.9221452294140855 4.000115361933067
H -3.7966358991150924 8.521037607753177 4.687236199462434
H -4.014580919640957 8.129581786123346 3.2275110334328505
O 0.3101303958601678 15.422888781936553 -6.051729139198456
H -0.37877036376864304 15.59856466960052 -5.393305960098324
H 1.1024171390322888 15.250335130020021 -5.521192714337747
O 8.097371515056144 4.418634545947065 -4.137867580428956
H 7.378309483631852 4.866219016153881 -4.608596051942689
H 8.61626437258983 5.144003593661876 -3.758985156294719
O 12.337527971708054 2.0618012825225325 6.711896192732787
H 12.407259763747557 2.1421699448599623 5.748752531489538
H 11.617197824035811 2.6663148024100902 6.9456692171125045
O -13.546848852516296 -9.2295971748006 12.202026073893158
H -14.445128730217206 -9.069855404656078 11.875616538050938
H -13.028039868265349 -8.503483482053271 11.824457421373728
O 11.23722476766939 8.777338652372794 -6.784215296241069
H 11.551749142838998 8.447252234443706 -7.639250225950324
H 10.397346779142916 9.211909564003331 -6.995674586539044
O -14.869443135435391 -10.322490652590044 13.648555444413237
H -14.823683498448977 -10.903477950502445 14.422717683344668
H -15.636043734899232 -9.75680554134729 13.825433425292596
O 17.440538809475704 -9.94674345645308 -8.993778523512285
H 17.588251293272016 -10.063575807856555 -9.944303946999872
H 16.85607030224759 -10.6820255027481 -8.75562138892516
O 17.037732638776717 10.778447247428527 4.149650541183045
H 17.427893028015514 10.92679613410193 5.0241417277548654
H 16.936437074747502 11.67016514705778 3.784218823226336
O -12.216056222649673 -1.2616753876054585 1.777889309832665
H -13.11411802512511 -1.0422371600335716 2.0682325896148535
H -11.679259958889514 -0.520815691809609 2.097167600135045
O 6.968428387638068 -18.46876989746218 -13.524668662519332
H 7.670364782976723 -19.01362599633125 -13.138165770778329
H 7.423806462345795 -17.946163828550745 -14.201776962654852
O 11.822617811619327 -5.10642074307753 6.357360046305391
H 11.137978967731463 -4.993054413341773 5.681057535869317
H 12.161766053316638 -4.209933130613514 6.499663859157295