194

C -5.0710522388059704 1.0783507462686561 0.47044029850746183
C -3.8153522388059704 0.1782507462686569 0.19534029850746193
C -4.11845223880597 -1.3219492537313435 0.5608402985074619
C -2.96945223880597 -2.3874492537313436 0.7034402985074619
C -2.52015223880597 0.7359507462686565 0.7384402985074618
C -2.20305223880597 0.7852507462686571 2.097440298507462
C -1.5755522388059702 1.205650746268656 -0.18965970149253808
C -0.9533522388059701 1.2695507462686564 2.508640298507462
H -2.91125223880597 0.4298507462686567 2.840840298507462
C -0.32655223880597006 1.6562507462686575 0.21554029850746192
H -1.7850522388059702 1.178550746268657 -1.2573597014925382
C 0.004447761194029898 1.6956507462686563 1.569740298507462
H -0.7158522388059702 1.2676507462686573 3.5705402985074617
H 0.3943477611940298 1.9193507462686572 -0.5551597014925382
C -1.76045223880597 -2.1592492537313435 -0.1734597014925381
C -0.5287522388059701 -1.936549253731343 0.464840298507462
C -1.8068522388059702 -2.121249253731343 -1.5681597014925381
C 0.6114477611940299 -1.614449253731343 -0.2582597014925381
H -0.4544522388059702 -1.954049253731343 1.5506402985074619
C -0.6479522388059701 -1.8270492537313432 -2.2998597014925384
H -2.74345223880597 -2.290549253731343 -2.092259701492538
C 0.5698477611940298 -1.5506492537313434 -1.6506597014925382
H 1.5072477611940298 -1.351949253731343 0.2991402985074618
H -0.7173522388059701 -1.7640492537313435 -3.3840597014925375
C 1.7791477611940298 -1.082849253731343 -2.4255597014925376
H 1.4739477611940297 -0.9102492537313429 -3.464259701492538
H 2.1252477611940295 -0.1337492537313434 -2.0010597014925384
C 1.3965477611940298 2.0964507462686566 1.997440298507462
H 1.51704776119403 1.8448507462686567 3.057640298507462
H 2.1256477611940294 1.5207507462686571 1.4165402985074618
C 3.94864776119403 -1.4275492537313434 -3.522959701492538
H 4.81734776119403 -2.087049253731343 -3.615159701492538
H 3.4305477611940303 -1.3641492537313429 -4.484459701492538
H 4.26984776119403 -0.441449253731343 -3.176459701492538
C 2.60904776119403 -3.4296492537313434 -2.8992597014925376
H 1.9825477611940296 -3.869549253731343 -2.119359701492538
H 2.06294776119403 -3.373349253731343 -3.845759701492538
H 3.5215477611940305 -4.019849253731343 -3.0234597014925377
C 3.7281477611940304 -2.060049253731343 -1.156659701492538
H 3.9048477611940298 -1.032549253731343 -0.8295597014925382
H 3.12924776119403 -2.623249253731343 -0.4404597014925382
H 4.68244776119403 -2.5769492537313434 -1.3005597014925383
C 3.1110477611940297 3.755250746268656 2.588740298507462
H 3.40124776119403 4.809350746268656 2.534540298507462
H 2.9823477611940303 3.461750746268656 3.634840298507462
H 3.86514776119403 3.1392507462686563 2.091540298507462
C 1.99744776119403 3.9574507462686572 0.40494029850746194
H 2.67914776119403 3.230350746268657 -0.04295970149253803
H 1.03214776119403 3.981150746268657 -0.10175970149253821
H 2.4399477611940297 4.958250746268657 0.368240298507462
C 0.7418477611940297 4.4992507462686575 2.475440298507462
H -0.18475223880597014 4.424250746268656 1.901240298507462
H 0.57844776119403 4.189650746268656 3.511940298507462
H 1.1210477611940297 5.524350746268658 2.4432402985074617
N 3.00114776119403 -2.025349253731343 -2.490159701492538
N 1.7831477611940298 3.586450746268657 1.862540298507462
C -3.55075223880597 -3.8435492537313434 0.6444402985074619
H -2.62515223880597 -2.2736492537313433 1.7424402985074618
H -4.67195223880597 -1.3478492537313436 1.5102402985074619
H -4.83415223880597 -1.6757492537313432 -0.1945597014925382
H -3.7169522388059697 0.17335074626865676 -0.900559701492538
H -3.9132522388059705 -4.043149253731343 -0.34225970149253815
H -4.35435223880597 -3.9354492537313432 1.3449402985074619
H -2.78115223880597 -4.545049253731343 0.8904402985074619
H -5.24235223880597 1.138950746268657 1.5249402985074618
H -5.92805223880597 0.6501507462686567 -0.006059701492538094
H -4.89895223880597 2.059650746268657 0.08004029850746197
C 0.40136612430670693 -0.689109624169634 4.637895033074493
O 1.5017778207497932 -1.1724289926235167 4.855316248710382
O -0.22886097117473325 -0.7993300293486154 3.579926822539219
O -0.25230164307820313 -0.01497551808766806 5.442202214006688
O 6.107835071515769 -1.9434866254338217 6.218495152304367
H 5.397224958003456 -2.3028293834658276 6.770648578196093
H 6.427438505415595 -2.7104506581914376 5.719915407633955
O 4.1798008836228595 7.963530768794199 -4.633630730975948
H 3.2167090800361424 8.066308847620872 -4.604335658407629
H 4.440954826677832 7.938095748377197 -3.7008319198364696
O 6.222636834228494 2.481169299987003 -0.1159362644555273
H 6.347826026308319 3.333093937767689 -0.5603678504489733
H 6.979440403766455 2.4176879437266443 0.4858780082581924
O -2.227658880089589 0.41336354586459473 -7.556157178722045
H -2.0242409148131024 -0.4372051785565877 -7.973435662877769
H -1.7433742049388288 0.38432599680041535 -6.717356178210919
O 5.823736491808247 -7.225195295675455 -0.9315208156421937
H 5.685602567706143 -7.998901614782449 -1.4983231689242351
H 5.444348871081886 -6.492298190547652 -1.439348356087645
O -1.7208506354168933 -9.486184833731004 -6.617133458494064
H -2.1756030514505476 -8.835435547516354 -7.172734901529161
H -1.6058588861438738 -9.030741198289762 -5.769601785436829
O -1.1723927945932577 1.7926312645627949 7.758673411166516
H -0.5349590498832164 1.2238261728601796 7.301391938047263
H -1.9484498028972588 1.7881492838610087 7.178434343185712
O -9.695091002832836 0.16914922288508638 6.892309516446448
H -9.656479171931624 0.23110086315120526 5.926059819068595
H -9.743856427314627 -0.783268239493506 7.064021062451467
O -0.7707328239345369 -4.041520055949528 -5.842388612669086
H -0.8506059365433182 -4.266605020259842 -6.781496913997325
H -0.30889302924285716 -3.1896619882798243 -5.844333062510421
O -6.63818552787831 3.4704503567324347 -0.5192931435137975
H -6.476923151511054 3.9339659648684995 0.3162396708523654
H -7.316416968845391 4.0063974689955755 -0.9571569918051548
O 5.500496153485383 2.739071766409707 -7.4859182964145505
H 5.592159423273783 2.7553989364025817 -8.450438190139778
H 6.410944003643534 2.814883876819435 -7.162964460150567
O 0.061789827778093276 -3.685494129570049 -11.76245041880017
H 0.6718168622594938 -4.376127703953047 -12.06221639424901
H 0.4706374890834164 -3.3480310299246847 -10.951325156881328
O 0.9075229704226513 0.16245530826325727 -8.490611392254591
H 1.0262634234573045 -0.48348605351349766 -7.778131344211759
H -0.01756956646504193 0.0504158886591366 -8.756342291755313
O -4.330659391890176 6.216582532065889 -2.688692805700281
H -4.464890964165152 7.176010083331341 -2.6675264225097663
H -3.476283184401102 6.1095279094583415 -3.133150394402444
O -2.7235781885777826 -5.794685027264988 5.2825308425165645
H -1.9405760165217396 -6.353884247808221 5.167765049706331
H -3.0116312332387936 -5.606525565067614 4.376670254706765
O -5.580394248240781 -9.148659609685266 -4.174824411113088
H -4.688094085261248 -9.065656087249867 -4.543441002315946
H -5.436309198039 -9.534180343466737 -3.2975700543653157
O 5.304605275061897 1.0354560499825527 6.224967881656188
H 5.589149533587011 1.2140622605357678 5.316066487998871
H 5.847452290380935 0.2799224068040438 6.4959807527243765
O 6.255586380477137 -3.660314907932837 2.8972007112265015
H 7.058196947306941 -4.0550966061794 3.2699352624056237
H 6.338713635869243 -3.8163408640109493 1.9444637565843053
O -1.2184381035013068 7.479938409210747 1.7806557216358176
H -2.1402236121638833 7.491840026630707 2.079214232521815
H -0.7085946120560235 7.3831038528503905 2.5989738915583582
O 0.023791350423527202 -10.844775611399 3.3475853078542435
H 0.002032231501427173 -11.211246220875466 4.2443534997710195
H 0.023594751931928393 -11.626626792582 2.775160084675023
C 9.536153705697087 8.50547702495809 4.766406726164883
O 10.134539546206867 8.10377912638068 3.810691579556911
O 8.937767865187308 8.9071749235355 5.722121872772854
O -12.354978664504666 12.273327525467279 -6.429577886783821
H -12.42421314574466 12.17066952264048 -7.390637342781753
H -11.553610398188257 11.779944932489494 -6.198613683956735
O 2.4901185568555797 12.836489497456775 -11.821878803210451
H 2.568290615698939 12.712544274359308 -10.86401969677177
H 3.404069332016256 12.785758073015243 -12.139813147780725
O -13.665137089023847 3.280313923932651 2.8602121801158162
H -13.446930446756742 2.832572770271261 3.6914047435380857
H -14.108745170575673 2.5969142103136766 2.3356755791932353
O 1.9706372274854127 10.68086481065593 -18.694245120645682
H 2.283453955774615 10.774970791952425 -17.78196385059424
H 1.4266543631380784 11.469827324505582 -18.83771197861819
O 4.626479078435983 3.5194445320004357 -16.909706078845492
H 4.687614023449529 3.663273762111545 -15.953388648300676
H 5.439009586070218 3.9158608994483157 -17.25843259358603
O 4.025705418001111 -14.897459362299422 11.460916713746112
H 4.045232328351788 -15.429540057977515 10.651301873245473
H 4.283107094237674 -15.520674370530074 12.156840111029657
O -2.3402890402018195 -15.93962875524542 1.3768928195671744
H -2.1706464943017676 -15.843937728326582 2.32611986874338
H -1.5318942259643646 -15.605695877392037 0.9598213608187386
O -12.702370212834778 10.167054283997723 2.494403665336155
H -12.385696383847261 10.532888279076971 3.333957434298419
H -13.303225838935038 9.455152086981487 2.7611052265747773
O 1.3511930135548766 18.325401579102444 -6.456136039050589
H 1.9272146482187207 17.57987227245365 -6.229525169437154
H 1.7954456224993844 19.09207435040654 -6.063944216740519
O 8.202559916270332 9.415093851368209 -16.413399711005482
H 9.126677902282113 9.692856821872741 -16.32496308371777
H 7.849063428871773 9.488334232212654 -15.514156682502822
O 9.253070483006079 3.7290937417027106 3.699229377238787
H 8.528406845352674 3.163736212620298 3.3923078343768314
H 9.648788544645331 4.066839494484053 2.8817350552581162
O -12.914906803812855 -1.6634808132615317 -13.113249736407205
H -12.944959866602758 -1.640300950505155 -12.144990027300429
H -13.58037751992822 -2.3260324117248086 -13.352281218991946
O 7.77280173562541 11.399642834476026 2.238918170683276
H 8.579174098207684 11.934973002400307 2.2853140872454745
H 7.5188688611986745 11.278115773069148 3.1661243036069013
O 4.918985377922332 -10.065670893822293 -7.2265319339470215
H 5.625933263301918 -10.698420933865545 -7.029505460896827
H 4.15351492590611 -10.412173496639072 -6.74388001213247
O 8.436741495324481 -12.624862792331228 -12.7423183617631
H 8.731033368130193 -12.440640440056775 -11.83765169639791
H 9.246935839149826 -12.55966991324754 -13.26985694618153
O 9.2784712959642 2.3854368896515625 -3.335644776066889
H 9.64645826694032 2.907357502778873 -2.606843143464001
H 8.381711089905664 2.169032698703017 -3.039077240301835
O 2.841528413639147 1.260532121188268 -11.49176690197139
H 2.1070761518495136 1.047236887366971 -10.89674389797809
H 3.5868987623359025 0.7551183916433717 -11.134077162712357
O -4.393810489150676 -18.61892077912278 -10.033819639407382
H -3.513979416927584 -18.2320602637663 -10.157122449224861
H -4.886066920323749 -17.933740834673664 -9.557191908370402
O 14.106681578019899 -8.794665831336648 7.490198879521479
H 14.093519494182438 -8.7874330053037 8.4590857680057
H 13.92997194674128 -7.87351978184323 7.246835763959474
O -10.133805862218514 -1.2337118349167837 10.29149512972871
H -10.238772326252768 -1.3710184322374868 9.33802971522205
H -10.902126387937688 -0.6965217616990942 10.536591721494041