194

C -5.0710522388059704 1.0783507462686561 0.47044029850746183
C -3.8153522388059704 0.1782507462686569 0.19534029850746193
C -4.11845223880597 -1.3219492537313435 0.5608402985074619
C -2.96945223880597 -2.3874492537313436 0.7034402985074619
C -2.52015223880597 0.7359507462686565 0.7384402985074618
C -2.20305223880597 0.7852507462686571 2.097440298507462
C -1.5755522388059702 1.205650746268656 -0.18965970149253808
C -0.9533522388059701 1.2695507462686564 2.508640298507462
H -2.91125223880597 0.4298507462686567 2.840840298507462
C -0.32655223880597006 1.6562507462686575 0.21554029850746192
H -1.7850522388059702 1.178550746268657 -1.2573597014925382
C 0.004447761194029898 1.6956507462686563 1.569740298507462
H -0.7158522388059702 1.2676507462686573 3.5705402985074617
H 0.3943477611940298 1.9193507462686572 -0.5551597014925382
C -1.76045223880597 -2.1592492537313435 -0.1734597014925381
C -0.5287522388059701 -1.936549253731343 0.464840298507462
C -1.8068522388059702 -2.121249253731343 -1.5681597014925381
C 0.6114477611940299 -1.614449253731343 -0.2582597014925381
H -0.4544522388059702 -1.954049253731343 1.5506402985074619
C -0.6479522388059701 -1.8270492537313432 -2.2998597014925384
H -2.74345223880597 -2.290549253731343 -2.092259701492538
C 0.5698477611940298 -1.5506492537313434 -1.6506597014925382
H 1.5072477611940298 -1.351949253731343 0.2991402985074618
H -0.7173522388059701 -1.7640492537313435 -3.3840597014925375
C 1.7791477611940298 -1.082849253731343 -2.4255597014925376
H 1.4739477611940297 -0.9102492537313429 -3.464259701492538
H 2.1252477611940295 -0.1337492537313434 -2.0010597014925384
C 1.3965477611940298 2.0964507462686566 1.997440298507462
H 1.51704776119403 1.8448507462686567 3.057640298507462
H 2.1256477611940294 1.5207507462686571 1.4165402985074618
C 3.94864776119403 -1.4275492537313434 -3.522959701492538
H 4.81734776119403 -2.087049253731343 -3.615159701492538
H 3.4305477611940303 -1.3641492537313429 -4.484459701492538
H 4.26984776119403 -0.441449253731343 -3.176459701492538
C 2.60904776119403 -3.4296492537313434 -2.8992597014925376
H 1.9825477611940296 -3.869549253731343 -2.119359701492538
H 2.06294776119403 -3.373349253731343 -3.845759701492538
H 3.5215477611940305 -4.019849253731343 -3.0234597014925377
C 3.7281477611940304 -2.060049253731343 -1.156659701492538
H 3.9048477611940298 -1.032549253731343 -0.8295597014925382
H 3.12924776119403 -2.623249253731343 -0.4404597014925382
H 4.68244776119403 -2.5769492537313434 -1.3005597014925383
C 3.1110477611940297 3.755250746268656 2.588740298507462
H 3.40124776119403 4.809350746268656 2.534540298507462
H 2.9823477611940303 3.461750746268656 3.634840298507462
H 3.86514776119403 3.1392507462686563 2.091540298507462
C 1.99744776119403 3.9574507462686572 0.40494029850746194
H 2.67914776119403 3.230350746268657 -0.04295970149253803
H 1.03214776119403 3.981150746268657 -0.10175970149253821
H 2.4399477611940297 4.958250746268657 0.368240298507462
C 0.7418477611940297 4.4992507462686575 2.475440298507462
H -0.18475223880597014 4.424250746268656 1.901240298507462
H 0.57844776119403 4.189650746268656 3.511940298507462
H 1.1210477611940297 5.524350746268658 2.4432402985074617
N 3.00114776119403 -2.025349253731343 -2.490159701492538
N 1.7831477611940298 3.586450746268657 1.862540298507462
C -3.55075223880597 -3.8435492537313434 0.6444402985074619
H -2.62515223880597 -2.2736492537313433 1.7424402985074618
H -4.67195223880597 -1.3478492537313436 1.5102402985074619
H -4.83415223880597 -1.6757492537313432 -0.1945597014925382
H -3.7169522388059697 0.17335074626865676 -0.900559701492538
H -3.9132522388059705 -4.043149253731343 -0.34225970149253815
H -4.35435223880597 -3.9354492537313432 1.3449402985074619
H -2.78115223880597 -4.545049253731343 0.8904402985074619
H -5.24235223880597 1.138950746268657 1.5249402985074618
H -5.92805223880597 0.6501507462686567 -0.006059701492538094
H -4.89895223880597 2.059650746268657 0.08004029850746197
C 1.8149121002355573 -0.7675380769375001 3.906791080484199
O 1.3441260797809547 -1.7898939203616515 4.381053192570976
O 1.3480129242039287 -0.14785074392705355 2.944177849312205
O 2.8311067185578813 -0.194401949476252 4.316073209939507
O 2.514866661667814 -7.2861666065597746 -3.5690250777295995
H 2.184001641942576 -7.147503524365954 -2.66887606492187
H 1.7245691728306571 -7.5300770783338065 -4.073900810159523
O 3.686412315377764 8.618244151053846 -0.6497513451326957
H 4.067995358558691 8.803006658926263 -1.5210862714047229
H 4.345374562710416 8.051762142648862 -0.22099869494408875
O -8.043531283293769 3.0546087489465 5.873036809764187
H -8.05368278559662 3.1050995313275296 6.8406705135982095
H -8.592542777360283 3.8026764123607317 5.593853904419276
O -1.5035614650241005 1.734335027969626 -5.6590714563695546
H -1.4987185062956228 1.462778950158363 -6.589233377356711
H -1.6048793339901917 2.697281568672735 -5.696894643386051
O -3.092742285072832 6.4266647052185855 -2.1418630694167407
H -3.0832704098941797 5.872888432638249 -1.346747052468503
H -2.8575686825049837 5.815158610251544 -2.855806776422704
O 1.757258336763618 6.192153039904429 -7.666103444270426
H 1.1028164971455885 6.894187624338139 -7.79959755543777
H 1.323714268931106 5.581944173970287 -7.050760754801699
O -5.53753292464541 -5.19109863549871 2.411103941137598
H -5.0257486458492755 -5.8410606812190915 2.915676580110519
H -5.6158663896336485 -5.587540045461873 1.5303883110790895
O -2.013306571148618 -3.4216539239680825 -6.418320592268775
H -1.6685365200873976 -4.296394977636538 -6.652690082216262
H -1.7049214868227571 -2.8484873944928237 -7.136192944121537
O 3.5379625825455214 -1.8202562211531623 9.454525170723212
H 3.122381122359844 -2.6268867978297057 9.794534758265106
H 3.048616007758821 -1.6302968228146277 8.640020842295558
O -4.51332570944442 8.162771005962705 0.314152873604145
H -4.4951523659975905 8.797713628359428 -0.4176155000988564
H -5.453007441815963 8.092952649716814 0.5401740745529462
O 8.883857041626712 -7.129697160847277 -2.311015781395029
H 9.692674626799231 -6.883813289641324 -2.784642842168024
H 9.060617617854467 -6.86860155364011 -1.3947479565268028
O 10.130222836770848 -2.1460974077166757 1.815183005632199
H 9.895162102493092 -1.6039974130524794 1.04717167506091
H 10.407169465560536 -2.9907946287489944 1.4295029388899536
O -5.505222526020424 0.10228131820943576 7.811417388727888
H -6.335663658916665 -0.3961182816464195 7.780876914639675
H -4.923523939354455 -0.37445138220552243 7.200422600758405
O 3.273850666385369 -7.415419006642528 4.974809301548882
H 3.32040943303101 -8.281009370974992 4.541735451815109
H 3.8086710549071094 -6.84053168361952 4.406976877193867
O -3.6893912738900125 -4.803907822104913 -6.125969295943399
H -3.7758239838870895 -5.117347483970353 -5.213142739629309
H -4.404128838028058 -5.257245237987371 -6.5977715278913065
O 5.805155278075424 -5.492933148773188 8.081945873603264
H 5.735236548334271 -5.566270886848995 7.118254893929121
H 6.746408828161049 -5.321829292374087 8.235982132570319
O 5.679842973001968 6.091486036866787 1.540051887007352
H 5.267061910222036 5.963011176002885 2.4072735202916427
H 6.4821819066054704 6.598442118098805 1.7355249327857123
O 1.6673326153266559 8.643393050626585 2.8274588129436067
H 1.2660968563198427 8.213977716623 3.597900045950265
H 0.908349078816121 8.932659726192306 2.2990359462798753
O -7.6634162058121635 1.9846005477336752 0.6621965008528778
H -7.685151443023135 2.0394404239524144 1.6294025411254234
H -8.282839548909237 1.269003127052577 0.45435762614219083
O 8.480563275409622 -1.619485935869309 -0.5265263386316956
H 7.921904271395688 -1.5624801911822828 0.26316842468311563
H 8.054665959905751 -2.3027600954541065 -1.0657014899418082
C -8.38404646365586 12.631853992401124 -0.37951233170939
O -7.594699879142118 11.76079050766797 -0.15368356387627302
O -9.173393048169602 13.502917477134275 -0.605341099542507
O -1.8688603339753578 10.10166367946504 -11.0217680119411
H -0.9384842484806377 10.125339619805443 -10.751940018047733
H -1.8541298287277352 10.410293866560565 -11.940186415572327
O -7.136776698858671 13.57954030907884 15.220950961138255
H -6.959126435561045 13.564132683936862 14.268496056201661
H -6.256820198235241 13.532446194311879 15.623965409594987
O 17.698626199085275 8.144398937756069 6.968745565574041
H 18.44654927154188 8.425448429533187 6.42048502736351
H 16.928129058508343 8.2666011514642 6.393973680712227
O -10.49377738519827 4.708111444517349 18.01059968368305
H -10.521012866791864 5.0788949239525865 17.115756011961412
H -10.889443104665142 5.399343507260027 18.562513461528162
O 6.975354468319031 9.583216693196142 4.001457151571114
H 6.447436571774952 8.812344745588632 4.258413357567936
H 6.3222051052519035 10.208748152827122 3.653508524850238
O -6.8103622756818165 1.6421776648488442 -13.628198572849582
H -7.761245621355109 1.675220579823225 -13.444632820076468
H -6.633214220569483 2.4723445832865023 -14.095535066611454
O 17.26315089335282 13.218585430745179 1.4187172351814645
H 17.42427724270923 13.992887372196055 1.9785941501444544
H 17.42625931936232 13.541679830021863 0.5198470583368131
O 9.929372319340246 13.50546660353741 8.563954809625034
H 9.536979911581819 12.9148237122516 9.224361146819856
H 10.690894987308294 13.008776655155726 8.228776848464959
O 9.03095129521577 -2.1089398974002838 9.907068319937286
H 8.151675673816108 -2.231262329268699 10.29549973109508
H 9.392608769870842 -1.345763970454433 10.382177065232987
O 19.59698861621709 1.1976928959126143 7.270828039931178
H 19.710916058516563 1.5692547328794886 6.383173999158027
H 20.049857987175216 0.3421852018199356 7.226354873906995
O 5.876217089651539 0.8858563067449926 -16.026812829413874
H 5.701631735249845 1.8018690304555887 -16.29026681197768
H 5.113856120116973 0.651195887711178 -15.476629056326017
O 8.015757387943353 -13.074713115958417 -0.17985711827516906
H 8.02703351486981 -13.029744460400421 0.7880364842860037
H 8.324776494722112 -12.199579260873065 -0.4584426017970229
O -3.2876982830508608 16.22704269244981 15.286334319919439
H -3.376959085810684 16.149089101718637 14.324605094158468
H -4.181459634213155 16.055383740795808 15.619029068578923
O -0.21340655886021742 -7.676640871040945 -6.837802331720104
H 0.49974809874008597 -8.22083947276645 -6.471434111041781
H -0.8997822424981106 -7.699114253236077 -6.154175743366986
O -1.78339014131865 -11.94672881267185 10.71457178007136
H -1.665942038607385 -12.186322980426734 9.783031155703656
H -1.7275214617687746 -12.793245969147213 11.182812464696497
O -4.4686338883197 -9.813426246697073 -1.9836636028929489
H -5.327767580195197 -9.476836205178175 -2.2795754146455156
H -4.69447719979155 -10.570774040745075 -1.4229666599602684
O -4.501002081861141 15.071035760033348 -11.642625113300504
H -4.767937976798364 14.8541043049444 -12.548524295708269
H -3.5361669064262413 15.144514442300352 -11.694160652453705
O 3.2732102781274475 8.648665481197076 -11.718377505133638
H 4.190444380555683 8.92383680442846 -11.86646430776561
H 2.869853372560193 8.695475527181614 -12.598192241669766
O 1.1323557491084348 -2.3901690008052334 10.383485000472076
H 1.1991386448933548 -1.9825209100636072 11.260029600504092
H 1.0433637013237578 -1.6364730803309246 9.781002785637916
O 22.041501757389696 -7.788729566201224 0.25452604362018505
H 21.47623856100232 -8.008967052476496 1.0101319761995118
H 22.68757381195504 -7.16546720613062 0.6193504878792524