194

C -5.0710522388059704 1.0783507462686561 0.47044029850746183
C -3.8153522388059704 0.1782507462686569 0.19534029850746193
C -4.11845223880597 -1.3219492537313435 0.5608402985074619
C -2.96945223880597 -2.3874492537313436 0.7034402985074619
C -2.52015223880597 0.7359507462686565 0.7384402985074618
C -2.20305223880597 0.7852507462686571 2.097440298507462
C -1.5755522388059702 1.205650746268656 -0.18965970149253808
C -0.9533522388059701 1.2695507462686564 2.508640298507462
H -2.91125223880597 0.4298507462686567 2.840840298507462
C -0.32655223880597006 1.6562507462686575 0.21554029850746192
H -1.7850522388059702 1.178550746268657 -1.2573597014925382
C 0.004447761194029898 1.6956507462686563 1.569740298507462
H -0.7158522388059702 1.2676507462686573 3.5705402985074617
H 0.3943477611940298 1.9193507462686572 -0.5551597014925382
C -1.76045223880597 -2.1592492537313435 -0.1734597014925381
C -0.5287522388059701 -1.936549253731343 0.464840298507462
C -1.8068522388059702 -2.121249253731343 -1.5681597014925381
C 0.6114477611940299 -1.614449253731343 -0.2582597014925381
H -0.4544522388059702 -1.954049253731343 1.5506402985074619
C -0.6479522388059701 -1.8270492537313432 -2.2998597014925384
H -2.74345223880597 -2.290549253731343 -2.092259701492538
C 0.5698477611940298 -1.5506492537313434 -1.6506597014925382
H 1.5072477611940298 -1.351949253731343 0.2991402985074618
H -0.7173522388059701 -1.7640492537313435 -3.3840597014925375
C 1.7791477611940298 -1.082849253731343 -2.4255597014925376
H 1.4739477611940297 -0.9102492537313429 -3.464259701492538
H 2.1252477611940295 -0.1337492537313434 -2.0010597014925384
C 1.3965477611940298 2.0964507462686566 1.997440298507462
H 1.51704776119403 1.8448507462686567 3.057640298507462
H 2.1256477611940294 1.5207507462686571 1.4165402985074618
C 3.94864776119403 -1.4275492537313434 -3.522959701492538
H 4.81734776119403 -2.087049253731343 -3.615159701492538
H 3.4305477611940303 -1.3641492537313429 -4.484459701492538
H 4.26984776119403 -0.441449253731343 -3.176459701492538
C 2.60904776119403 -3.4296492537313434 -2.8992597014925376
H 1.9825477611940296 -3.869549253731343 -2.119359701492538
H 2.06294776119403 -3.373349253731343 -3.845759701492538
H 3.5215477611940305 -4.019849253731343 -3.0234597014925377
C 3.7281477611940304 -2.060049253731343 -1.156659701492538
H 3.9048477611940298 -1.032549253731343 -0.8295597014925382
H 3.12924776119403 -2.623249253731343 -0.4404597014925382
H 4.68244776119403 -2.5769492537313434 -1.3005597014925383
C 3.1110477611940297 3.755250746268656 2.588740298507462
H 3.40124776119403 4.809350746268656 2.534540298507462
H 2.9823477611940303 3.461750746268656 3.634840298507462
H 3.86514776119403 3.1392507462686563 2.091540298507462
C 1.99744776119403 3.9574507462686572 0.40494029850746194
H 2.67914776119403 3.230350746268657 -0.04295970149253803
H 1.03214776119403 3.981150746268657 -0.10175970149253821
H 2.4399477611940297 4.958250746268657 0.368240298507462
C 0.7418477611940297 4.4992507462686575 2.475440298507462
H -0.18475223880597014 4.424250746268656 1.901240298507462
H 0.57844776119403 4.189650746268656 3.511940298507462
H 1.1210477611940297 5.524350746268658 2.4432402985074617
N 3.00114776119403 -2.025349253731343 -2.490159701492538
N 1.7831477611940298 3.586450746268657 1.862540298507462
C -3.55075223880597 -3.8435492537313434 0.6444402985074619
H -2.62515223880597 -2.2736492537313433 1.7424402985074618
H -4.67195223880597 -1.3478492537313436 1.5102402985074619
H -4.83415223880597 -1.6757492537313432 -0.1945597014925382
H -3.7169522388059697 0.17335074626865676 -0.900559701492538
H -3.9132522388059705 -4.043149253731343 -0.34225970149253815
H -4.35435223880597 -3.9354492537313432 1.3449402985074619
H -2.78115223880597 -4.545049253731343 0.8904402985074619
H -5.24235223880597 1.138950746268657 1.5249402985074618
H -5.92805223880597 0.6501507462686567 -0.006059701492538094
H -4.89895223880597 2.059650746268657 0.08004029850746197
C -0.17224805724035797 3.5048869855198665 -3.135623542964243
O -0.5886924729595895 3.0499985017031293 -4.189865457567896
O -0.41843526271400866 3.0452605900133607 -2.0145673889225413
O 0.5598285060604862 4.495260294021683 -3.0266602478929534
O -8.839744221349576 5.135949889531666 2.6491267083036076
H -9.075950142441506 4.530838959128538 3.368164177179725
H -9.468223497041144 4.918601096133902 1.944332237315972
O -7.132145009582288 -7.058136249582188 -0.6812232095787568
H -6.427057889163132 -7.218781752313995 -0.03623287478987813
H -7.497988503684059 -6.199964808700992 -0.419188364225516
O 6.934694486704358 3.3914074662551954 -1.960304208674033
H 6.704829830502621 4.273494752249171 -2.289016265978051
H 7.7847963394653865 3.1981749392772825 -2.383329000796194
O 5.909446650992594 -3.2776462480429185 4.708355711046095
H 5.219879585465098 -2.8877424652728787 4.150287920162753
H 6.730097768498496 -2.8842442391804 4.375596718591725
O 10.604500424061204 1.009665970057041 3.131498608489601
H 10.901497834656103 1.1709508749810107 4.039654473109541
H 9.653033149374247 1.190819047826758 3.1607480856530366
O -4.099808602912344 2.3832626095486353 -4.120084979308616
H -3.703382275825085 1.6071601700355496 -3.6964359176149246
H -3.790841376821634 3.1272580666782677 -3.5815945362436725
O 7.307229343383715 -5.9983889410716715 -4.146273135977923
H 6.348462639644929 -6.0675559253225115 -4.02400419882907
H 7.668694430305407 -6.169608313419 -3.2636696792830833
O 2.0899504427477598 -8.385193448583209 -6.355980605697818
H 2.158498314841 -8.241837370327652 -5.400094848424139
H 1.1354441313918042 -8.412384271113226 -6.520723754422701
O -0.600399688235302 0.7635073384647288 -9.034783980545518
H -0.9048180282270488 -0.11069244703940573 -9.321265334565629
H -0.8197095736331836 1.3433706258368507 -9.779514593871411
O 2.7272954292941494 -0.420608893445066 -10.532516284507576
H 2.4146267446290257 0.3966061455992971 -10.94888778988409
H 2.274175504410482 -0.43516571565984963 -9.676109618898051
O 8.336108903664147 1.0062849087727148 -4.56793795695666
H 7.60272645078381 0.6205582323850045 -5.070265007621974
H 8.117643059245603 1.949195363269836 -4.5215214305622276
O -2.4991736520984063 4.702037381887425 2.1912006600571328
H -2.5595228147457325 5.167752882536965 1.3435955586552386
H -2.2053737499090857 3.8111525895863636 1.948367695614
O -10.417392782902434 2.1152945926281634 -4.646792572277658
H -10.42525427838044 2.169956843859716 -5.614220911783561
H -10.375181325060726 3.0400568475625436 -4.360445040464377
O 10.029664591595326 3.5904160697515004 7.123570180006673
H 9.986509426508057 3.4053647235181916 6.173380205378686
H 10.472412801381626 2.8120177445746357 7.4937485348477875
O 6.5018772038927946 0.741588855205928 7.246360255004671
H 6.3699267476171135 1.5068336683409598 6.666742441304496
H 6.077149385458119 0.01185336906831802 6.770908527886946
O -6.2803477281892075 -1.8716765474670303 -2.6924544189273996
H -5.901893294837953 -2.5879846085844065 -2.1608132238013558
H -5.568515928790837 -1.2161232310364287 -2.742527195783849
O -6.696756033836528 -6.43033984007211 3.592250870197297
H -6.226744038315122 -6.461894116922559 2.7454566752606344
H -7.562730592756861 -6.059286046837416 3.3656033682722177
O 0.8078516863198841 9.474305048945741 2.7772152075551846
H 1.1895475067326435 8.94320348361765 2.062227945510971
H 1.4260088634044268 10.214103291322626 2.87489944013619
O -7.275086565001419 -7.241180452576831 -6.368290137464907
H -7.228496436763758 -7.234482466999405 -5.400430719036795
H -8.009260160378291 -7.842838522694397 -6.563119916538346
O -3.012412836504896 -7.185299882824718 -1.215458478510913
H -3.572393620079969 -7.77978788488013 -1.736968683913275
H -2.1189308824468354 -7.349711586318089 -1.5525352261916092
C 10.839923236143697 11.803243789082112 6.4171255473152895
O 10.869058662796181 11.79184558431159 5.220530601169441
O 10.810787809491211 11.814641993852634 7.613720493461138
O -10.913968397960057 9.013855848735233 7.819876045257703
H -10.019531146164912 9.180385038080924 8.153368756717814
H -10.783396928260768 8.842609484638565 6.87510743952176
O 1.5644147079459478 -4.702237226297465 -11.46792642572445
H 2.354745965547198 -4.157634712208103 -11.601162913992397
H 1.4625420701592104 -4.735241882857792 -10.50486121369792
O -4.388388291530329 -12.514960348843328 4.090814974176893
H -4.790132122580053 -13.304274541788407 4.483946448278054
H -4.6897237733770325 -11.79083036354875 4.659844530595088
O -4.841638104341834 -6.088906027752672 -8.017983661854156
H -4.749092432210003 -6.402528137520006 -8.93014802628348
H -5.368305497316929 -6.777995851698123 -7.5858510247950655
O 10.65875332294364 -17.445448831968935 -1.0741062028974415
H 9.734225923748687 -17.158871920334914 -1.0283883862815464
H 10.973540520909859 -17.36699743770986 -0.16102551476775506
O 1.858820762888346 9.72005811426071 22.17680440858934
H 0.9561737988803207 9.593847451085262 21.847765377822604
H 2.153055708781915 8.824778181445522 22.402329535378886
O -8.270446665285846 1.085377206002498 6.08162640752156
H -8.33156207745695 1.0062773760594732 5.11779266656924
H -7.373011785413995 1.418156498505526 6.232724134740014
O 8.609451257702656 8.451564644709025 -13.63072835841349
H 8.59813562465315 8.730071173066582 -12.702680177007528
H 9.532486834628862 8.571884453013297 -13.89996879326332
O 10.063427601061244 0.9980974696999314 -12.239932373553177
H 10.462923136918103 0.7650217489542941 -11.388435819168285
H 10.559982472907398 1.7797353636079976 -12.525304772976828
O 13.068120810789587 -11.71300632595855 5.3396060496982605
H 13.687343025209074 -12.273744079248482 4.848582243651355
H 12.197371917148438 -11.981272160799538 5.00977010505337
O -11.849487179430115 6.139916436521833 -12.204420150927344
H -11.317804419776476 5.429441269359645 -12.593657657898287
H -11.434294563576534 6.950784930019983 -12.534676600209872
O -2.050745105266397 -5.684151776763301 -9.915384405487716
H -1.7534210010863944 -4.814370775244024 -10.22205482037915
H -2.717146026305163 -5.479775394648997 -9.24225585077283
O 6.459634891639256 -5.224289512779881 7.587654510454419
H 6.62132810388936 -5.31143728797459 8.539089178359081
H 6.42443958788868 -6.139559615551066 7.271420619375164
O -2.319650483293187 7.286232574987131 -3.1290256175363154
H -2.5167485429740837 7.434555126038626 -2.1919449739310792
H -2.8477286105833786 6.5069326632405335 -3.358780015381988
O -1.8535361699841113 2.8982775819498534 -15.243140168870674
H -2.09103823636658 3.6196804444062756 -14.641361110242228
H -1.2070349602988926 3.2980537472727103 -15.844120324795394
O 1.2052573440203798 -19.232648664440404 -6.498379149310609
H 1.2586556157732391 -20.07043284058706 -6.014402232844475
H 1.6129816894921423 -19.43070074384638 -7.354824230009066
O 9.191493689265533 -3.943955848142375 -10.132276192679504
H 10.081223358632368 -3.7619004471574793 -9.794334920680043
H 9.168841545792116 -3.490242923033373 -10.988192897905598
O -11.052767560813852 3.048560736420076 11.215078755836865
H -11.65655605460639 3.6258104971385245 10.723968253592991
H -10.3508902577959 2.847711706786015 10.577905417487477
O 5.562784931735759 -3.875660435995825 -15.2744149305766
H 5.962477170003014 -3.412333928673175 -16.02577504342603
H 5.173300145881324 -4.670064774742956 -15.669617780348286
O -13.380549678103206 -12.754675687137562 13.737158970388744
H -13.383521072267781 -12.688114574310545 14.703868929981564
H -12.770467395105936 -13.48506889829822 13.554710869923815