194

C -5.0710522388059704 1.0783507462686561 0.47044029850746183
C -3.8153522388059704 0.1782507462686569 0.19534029850746193
C -4.11845223880597 -1.3219492537313435 0.5608402985074619
C -2.96945223880597 -2.3874492537313436 0.7034402985074619
C -2.52015223880597 0.7359507462686565 0.7384402985074618
C -2.20305223880597 0.7852507462686571 2.097440298507462
C -1.5755522388059702 1.205650746268656 -0.18965970149253808
C -0.9533522388059701 1.2695507462686564 2.508640298507462
H -2.91125223880597 0.4298507462686567 2.840840298507462
C -0.32655223880597006 1.6562507462686575 0.21554029850746192
H -1.7850522388059702 1.178550746268657 -1.2573597014925382
C 0.004447761194029898 1.6956507462686563 1.569740298507462
H -0.7158522388059702 1.2676507462686573 3.5705402985074617
H 0.3943477611940298 1.9193507462686572 -0.5551597014925382
C -1.76045223880597 -2.1592492537313435 -0.1734597014925381
C -0.5287522388059701 -1.936549253731343 0.464840298507462
C -1.8068522388059702 -2.121249253731343 -1.5681597014925381
C 0.6114477611940299 -1.614449253731343 -0.2582597014925381
H -0.4544522388059702 -1.954049253731343 1.5506402985074619
C -0.6479522388059701 -1.8270492537313432 -2.2998597014925384
H -2.74345223880597 -2.290549253731343 -2.092259701492538
C 0.5698477611940298 -1.5506492537313434 -1.6506597014925382
H 1.5072477611940298 -1.351949253731343 0.2991402985074618
H -0.7173522388059701 -1.7640492537313435 -3.3840597014925375
C 1.7791477611940298 -1.082849253731343 -2.4255597014925376
H 1.4739477611940297 -0.9102492537313429 -3.464259701492538
H 2.1252477611940295 -0.1337492537313434 -2.0010597014925384
C 1.3965477611940298 2.0964507462686566 1.997440298507462
H 1.51704776119403 1.8448507462686567 3.057640298507462
H 2.1256477611940294 1.5207507462686571 1.4165402985074618
C 3.94864776119403 -1.4275492537313434 -3.522959701492538
H 4.81734776119403 -2.087049253731343 -3.615159701492538
H 3.4305477611940303 -1.3641492537313429 -4.484459701492538
H 4.26984776119403 -0.441449253731343 -3.176459701492538
C 2.60904776119403 -3.4296492537313434 -2.8992597014925376
H 1.9825477611940296 -3.869549253731343 -2.119359701492538
H 2.06294776119403 -3.373349253731343 -3.845759701492538
H 3.5215477611940305 -4.019849253731343 -3.0234597014925377
C 3.7281477611940304 -2.060049253731343 -1.156659701492538
H 3.9048477611940298 -1.032549253731343 -0.8295597014925382
H 3.12924776119403 -2.623249253731343 -0.4404597014925382
H 4.68244776119403 -2.5769492537313434 -1.3005597014925383
C 3.1110477611940297 3.755250746268656 2.588740298507462
H 3.40124776119403 4.809350746268656 2.534540298507462
H 2.9823477611940303 3.461750746268656 3.634840298507462
H 3.86514776119403 3.1392507462686563 2.091540298507462
C 1.99744776119403 3.9574507462686572 0.40494029850746194
H 2.67914776119403 3.230350746268657 -0.04295970149253803
H 1.03214776119403 3.981150746268657 -0.10175970149253821
H 2.4399477611940297 4.958250746268657 0.368240298507462
C 0.7418477611940297 4.4992507462686575 2.475440298507462
H -0.18475223880597014 4.424250746268656 1.901240298507462
H 0.57844776119403 4.189650746268656 3.511940298507462
H 1.1210477611940297 5.524350746268658 2.4432402985074617
N 3.00114776119403 -2.025349253731343 -2.490159701492538
N 1.7831477611940298 3.586450746268657 1.862540298507462
C -3.55075223880597 -3.8435492537313434 0.6444402985074619
H -2.62515223880597 -2.2736492537313433 1.7424402985074618
H -4.67195223880597 -1.3478492537313436 1.5102402985074619
H -4.83415223880597 -1.6757492537313432 -0.1945597014925382
H -3.7169522388059697 0.17335074626865676 -0.900559701492538
H -3.9132522388059705 -4.043149253731343 -0.34225970149253815
H -4.35435223880597 -3.9354492537313432 1.3449402985074619
H -2.78115223880597 -4.545049253731343 0.8904402985074619
H -5.24235223880597 1.138950746268657 1.5249402985074618
H -5.92805223880597 0.6501507462686567 -0.006059701492538094
H -4.89895223880597 2.059650746268657 0.08004029850746197
C -2.1994380863156846 1.8700087630530606 -3.671604078362754
O -1.0810442536231912 2.333520591791192 -3.509963989847476
O -2.6789008043701954 1.5285067786587752 -4.7588590442058845
O -3.024852978032989 1.6707138046163448 -2.772927183993583
O 0.741169703922959 -5.256929899219955 4.759899892643241
H 1.0441424651004867 -6.071873490947177 5.187733744958832
H 1.4658099110329084 -4.631072278975301 4.908764776754128
O 5.101964019426527 -4.99934496631955 -5.694169345525613
H 4.9602765681149465 -5.2529569465920005 -4.769738176371783
H 5.539684648475133 -5.770913502062922 -6.084098300408578
O -5.976046869513928 7.623628286449634 -2.089232804977841
H -6.915147668085253 7.789716744454978 -1.9175596529123338
H -5.540704357950205 7.858284481436449 -1.255940952095731
O -1.5583811082682344 -5.388182885963741 6.7657922664024515
H -2.294816051650444 -5.146862901878405 7.3475100642621145
H -1.8747617501504703 -6.178755153965815 6.303341487607301
O -4.786927106320306 -2.604762802871241 -4.203909026473499
H -4.3714453905047 -1.9246362303537432 -3.652755557756735
H -4.2372430970695305 -2.6276184282633497 -5.001585060124962
O 6.464187674888074 -0.749035884385989 10.707003055525778
H 5.523630621163994 -0.8865816556742585 10.518851663315685
H 6.860060666505981 -1.6232010515234467 10.572534548539837
O 2.8892035881203633 8.66160574243754 -3.025019020151201
H 3.5005729029427206 8.778109625349222 -2.2823065838340595
H 3.2173994066082 7.869383730667562 -3.4762769653380134
O -8.021608713323518 -5.3454950875635845 2.872157273283776
H -8.797925308854099 -5.230011084778992 3.4404559144088975
H -7.723508232060862 -4.440402413615075 2.696358243321406
O -11.979755343243815 -1.121177248911426 -0.5961277624713763
H -11.610363191784714 -0.36402356193759644 -0.11734274845949733
H -12.924710696798623 -0.9173685645097001 -0.6630855420831878
O -4.830648211249038 4.598664369793643 2.8774077494262116
H -4.001543167886277 5.01154353726822 3.1621584773198164
H -4.877116091004378 4.796137887842832 1.9298810267844062
O 7.936621888387421 -2.9345060184012635 4.381267576708167
H 7.229406096020453 -3.272999832312702 3.8118511053355406
H 7.494355843938663 -2.7612199894438882 5.225858982297776
O -4.765826564007729 7.747173844865301 7.051633337689292
H -4.658859686876678 7.949381333518003 6.110018992200865
H -5.27262896658467 8.497801321738255 7.396120870127817
O -2.4603798841979083 -7.185051172393586 -2.241580236982597
H -2.2232539444249686 -6.327326099219924 -2.625046460313984
H -1.9693906786340896 -7.82518723417404 -2.7783458904367087
O -2.127753461601281 6.555272523534178 6.161872997080736
H -2.9052457151505084 6.846849757999114 6.66132856959217
H -2.029579174221917 7.225731682067305 5.4691910568393265
O -2.7666322037604143 0.1768490989039031 5.836436309539448
H -3.1716038360121974 0.15067755472426425 4.9565042756603646
H -2.9777169226023887 1.0636855770185492 6.164957613044432
O 4.259581011314216 -6.1866986817605945 3.5682554812023852
H 3.383724883794155 -6.504657741052769 3.8342356259493178
H 4.873210549207798 -6.742785234668142 4.071433859314871
O -5.270299635513718 3.1185767731302843 -2.7823189630188097
H -4.8620497420050945 3.979498005649634 -2.605927317106758
H -6.221135264504809 3.2916536627981046 -2.7121909286528787
O 3.012445380957978 2.2090120113940146 -7.469011776014261
H 2.064666274968638 2.2834670732928775 -7.281558936858153
H 3.1053418422545773 1.3267477292289467 -7.858809067172533
O -3.0849598236530857 4.686600383116826 -7.563959581598779
H -3.8098163058610024 4.743422315196105 -8.204523165590206
H -2.9255884494309736 3.734977302640574 -7.474649884009748
O 6.202461337052038 1.633938181410131 -3.650636136120557
H 6.546224666627478 0.8940034221814241 -4.173408249210347
H 5.9944056167517825 2.3109895563357425 -4.311904763277236
C -14.572364533649239 -7.9228796999343665 -4.107818053274716
O -13.441781892487077 -7.905888538712699 -3.714991820389069
O -15.702947174811401 -7.9398708611560345 -4.500644286160362
O 5.7988653573039635 -16.948808063023662 -2.871527577316389
H 6.015009461319792 -16.11868251627489 -3.322238859440821
H 5.294460090400971 -16.668116293471513 -2.093228533550946
O 0.3453837905307777 17.368806975999227 -3.536545265891134
H 0.16877753907558857 17.66211246507903 -4.4430492531535215
H 1.1970976901680959 16.91112580345706 -3.6003678462606343
O -22.112562912707737 -3.95680412822513 -3.9445177997292458
H -22.69410717624701 -4.671749341384597 -3.6451401642503583
H -21.294377722557137 -4.095610544946124 -3.444250153768297
O -16.480504835259264 -2.2096425425010713 5.765111594121697
H -16.46994624593561 -2.185841220239506 4.796458214346405
H -15.55516412394836 -2.3675635187310617 6.005460252443715
O 9.637053187187682 -8.523092863182402 12.748914152305783
H 8.880789186836509 -7.92021433344015 12.808660257188548
H 10.382397486849094 -7.9966199217905585 13.074874366510615
O 8.68545206376275 -2.1385992594967784 -3.6934185346374795
H 8.742116082945532 -2.126767304637872 -4.660691273152461
H 9.606234697004293 -2.0529752557145104 -3.4039538276401293
O -10.669936047292904 -9.966069431634487 2.463875601668633
H -10.3820174691874 -10.295534560631015 3.328469713409515
H -11.6174715088409 -10.167523749494565 2.4403245671997107
O -9.883664525341022 13.920496221866523 11.954346154049011
H -9.997608269776038 12.958671811763693 11.924715356987965
H -9.134732874733416 14.08582265504497 11.362121114464685
O -5.799922711504001 13.79718104976686 2.9104472343345344
H -5.602210341196932 14.324753297663186 2.1220661724252725
H -5.169500045275967 14.119561901627982 3.5719604938836036
O 13.442916436805724 -7.438677736971581 5.753619383934457
H 13.6573158255257 -7.274885018673734 4.8229356543844535
H 14.161232056826805 -7.005768750453499 6.238979480899193
O -9.632577295035292 8.049232838966887 7.019382464000098
H -9.915991257161588 8.323120886133562 7.904610807757291
H -9.536642124928019 7.087685458397036 7.09138956334277
O 9.55365528478239 10.151674830105806 -14.108872633677134
H 8.622085324201167 9.886936609938356 -14.07633895535341
H 10.022469484357865 9.331981342653133 -14.3263071691219
O 2.517349360997661 3.6536623662588443 17.785842543758775
H 2.3785245596264706 4.28479577276079 18.507899089066342
H 3.0493102110215338 2.950829787395624 18.188342189013717
O -18.47519874560553 -0.2800077526802536 9.139496983904118
H -18.47979460994753 -0.26302796781100035 8.170653383606968
H -17.61280582747399 0.09320284283277402 9.376043491917606
O 17.691842948140106 -13.197583418279237 2.546002716524577
H 18.53268343817959 -12.82172291642175 2.2448656873275477
H 17.468447886176143 -12.673334858961194 3.3297246306261705
O 3.694978490929934 14.220542788803137 10.598876114634137
H 3.3002053808014695 14.441425703943933 11.455808017540317
H 3.135365266299803 13.505376809952804 10.260745066349433
O -13.977436825667858 -8.062078197348747 8.968543903050396
H -13.15363142749792 -7.920118431169293 9.458604560145357
H -14.321984101667113 -7.16771328505653 8.825853600079128
O 10.06288219726979 10.504577276077342 -3.3579789980633676
H 9.880621685745137 11.376361796326456 -2.976219632634313
H 9.730288635084861 9.883536194318037 -2.692658442646378
O 10.061839639852153 -1.6469293808730865 -15.344212095324242
H 9.56857966970287 -1.1491831960261902 -16.013473400210973
H 10.825347311055236 -1.9963140538952766 -15.827894150574604
O -5.267171123432507 7.453100766067721 -11.32223986132149
H -5.187066398797242 7.373726537037191 -10.359820866414948
H -4.444017517759689 7.888309078287895 -11.590519213382557