194

C -5.0710522388059704 1.0783507462686561 0.47044029850746183
C -3.8153522388059704 0.1782507462686569 0.19534029850746193
C -4.11845223880597 -1.3219492537313435 0.5608402985074619
C -2.96945223880597 -2.3874492537313436 0.7034402985074619
C -2.52015223880597 0.7359507462686565 0.7384402985074618
C -2.20305223880597 0.7852507462686571 2.097440298507462
C -1.5755522388059702 1.205650746268656 -0.18965970149253808
C -0.9533522388059701 1.2695507462686564 2.508640298507462
H -2.91125223880597 0.4298507462686567 2.840840298507462
C -0.32655223880597006 1.6562507462686575 0.21554029850746192
H -1.7850522388059702 1.178550746268657 -1.2573597014925382
C 0.004447761194029898 1.6956507462686563 1.569740298507462
H -0.7158522388059702 1.2676507462686573 3.5705402985074617
H 0.3943477611940298 1.9193507462686572 -0.5551597014925382
C -1.76045223880597 -2.1592492537313435 -0.1734597014925381
C -0.5287522388059701 -1.936549253731343 0.464840298507462
C -1.8068522388059702 -2.121249253731343 -1.5681597014925381
C 0.6114477611940299 -1.614449253731343 -0.2582597014925381
H -0.4544522388059702 -1.954049253731343 1.5506402985074619
C -0.6479522388059701 -1.8270492537313432 -2.2998597014925384
H -2.74345223880597 -2.290549253731343 -2.092259701492538
C 0.5698477611940298 -1.5506492537313434 -1.6506597014925382
H 1.5072477611940298 -1.351949253731343 0.2991402985074618
H -0.7173522388059701 -1.7640492537313435 -3.3840597014925375
C 1.7791477611940298 -1.082849253731343 -2.4255597014925376
H 1.4739477611940297 -0.9102492537313429 -3.464259701492538
H 2.1252477611940295 -0.1337492537313434 -2.0010597014925384
C 1.3965477611940298 2.0964507462686566 1.997440298507462
H 1.51704776119403 1.8448507462686567 3.057640298507462
H 2.1256477611940294 1.5207507462686571 1.4165402985074618
C 3.94864776119403 -1.4275492537313434 -3.522959701492538
H 4.81734776119403 -2.087049253731343 -3.615159701492538
H 3.4305477611940303 -1.3641492537313429 -4.484459701492538
H 4.26984776119403 -0.441449253731343 -3.176459701492538
C 2.60904776119403 -3.4296492537313434 -2.8992597014925376
H 1.9825477611940296 -3.869549253731343 -2.119359701492538
H 2.06294776119403 -3.373349253731343 -3.845759701492538
H 3.5215477611940305 -4.019849253731343 -3.0234597014925377
C 3.7281477611940304 -2.060049253731343 -1.156659701492538
H 3.9048477611940298 -1.032549253731343 -0.8295597014925382
H 3.12924776119403 -2.623249253731343 -0.4404597014925382
H 4.68244776119403 -2.5769492537313434 -1.3005597014925383
C 3.1110477611940297 3.755250746268656 2.588740298507462
H 3.40124776119403 4.809350746268656 2.534540298507462
H 2.9823477611940303 3.461750746268656 3.634840298507462
H 3.86514776119403 3.1392507462686563 2.091540298507462
C 1.99744776119403 3.9574507462686572 0.40494029850746194
H 2.67914776119403 3.230350746268657 -0.04295970149253803
H 1.03214776119403 3.981150746268657 -0.10175970149253821
H 2.4399477611940297 4.958250746268657 0.368240298507462
C 0.7418477611940297 4.4992507462686575 2.475440298507462
H -0.18475223880597014 4.424250746268656 1.901240298507462
H 0.57844776119403 4.189650746268656 3.511940298507462
H 1.1210477611940297 5.524350746268658 2.4432402985074617
N 3.00114776119403 -2.025349253731343 -2.490159701492538
N 1.7831477611940298 3.586450746268657 1.862540298507462
C -3.55075223880597 -3.8435492537313434 0.6444402985074619
H -2.62515223880597 -2.2736492537313433 1.7424402985074618
H -4.67195223880597 -1.3478492537313436 1.5102402985074619
H -4.83415223880597 -1.6757492537313432 -0.1945597014925382
H -3.7169522388059697 0.17335074626865676 -0.900559701492538
H -3.9132522388059705 -4.043149253731343 -0.34225970149253815
H -4.35435223880597 -3.9354492537313432 1.3449402985074619
H -2.78115223880597 -4.545049253731343 0.8904402985074619
H -5.24235223880597 1.138950746268657 1.5249402985074618
H -5.92805223880597 0.6501507462686567 -0.006059701492538094
H -4.89895223880597 2.059650746268657 0.08004029850746197
C 1.52423718530296 -0.24652774663374544 3.835902403706414
O 0.5517892806870581 -0.055825519020987535 4.549872453352528
O 1.5650022585466994 -1.0326439394041893 2.8824922063791907
O 2.6180736852332904 0.3170979401990266 3.9563024907597444
O 5.836679605444593 7.194524281163185 2.6830113121487735
H 5.877022203975528 6.46958183005816 2.041296208516631
H 6.708408050847585 7.612763168878001 2.6187641754160165
O 7.099093685807226 -7.452268820337862 -3.528220952009178
H 6.132030460486937 -7.396938275058439 -3.5018655750966436
H 7.391401627735116 -6.693302179841879 -3.0014499865980966
O -1.9137951814657506 -5.322663764456172 8.442386112384826
H -1.3469227727512791 -5.164602009954516 9.212216945037111
H -1.4061829607980307 -5.946677270807543 7.9021094040030455
O -8.92142867759717 1.6811642308138026 -0.8905964272460807
H -9.317575124032315 1.4994170433109106 -1.7560462003187844
H -9.663954402600297 1.605075783727127 -0.2726740694789269
O -0.8555853611340849 6.543601938503541 -8.37147252141881
H -1.0051477883896647 6.910398778856542 -7.487131797964056
H -1.7084952308725665 6.653923744967122 -8.817942898287534
O -6.448705099810977 6.778440258261014 -2.562255845442194
H -6.587890216833632 6.139476325736928 -1.8471894478029642
H -6.31173808499259 6.225960043864986 -3.3464545408330104
O 10.68426948137548 0.46997416333931596 1.7337324145091602
H 10.196619503525007 -0.17727652033943153 1.2024778536065481
H 10.024948150484171 1.1504176776838169 1.9368431003880997
O 0.0727815798891771 1.280881102712372 -4.829351018406886
H -0.7014794269397122 1.1785924040292381 -4.25574464437847
H -0.29472338584609137 1.2542490290805743 -5.725561248829407
O -3.366894425897589 2.152812631902411 -5.346344344199963
H -3.145427414409924 1.210394884325045 -5.304290702574916
H -4.335445610415783 2.164659239138193 -5.373366652861555
O -0.8851524451640191 -9.761118906156554 -2.836730688428325
H -0.8162243555696573 -9.368914993909604 -3.720128880968394
H -0.017501803615798117 -9.595010252938781 -2.4385445211056345
O 7.289415965535126 1.3478140745417533 -6.843157428057598
H 7.4913358807135415 0.4913954476791831 -7.2490426831693995
H 7.576406355524073 1.994229174530459 -7.50553645766269
O 6.571750332981408 -4.314767191097227 4.856504208883258
H 7.420614233295689 -4.782091749898991 4.8542255285714955
H 6.79692722078321 -3.421897443252721 5.158234099487393
O 4.504900893040448 4.307297681850995 -5.7118245281563835
H 4.5355922088897005 4.314179189990737 -4.743331861752985
H 3.9568846368245936 3.536599269342622 -5.923163318207413
O -4.439288409078258 8.240878492833449 -3.038006732056887
H -4.40684418918568 7.742543006592241 -3.8684141457089463
H -5.072165990398614 8.952564178283094 -3.216700314728913
O -4.455200468819585 -10.813613140718658 0.686472462776883
H -4.178730458703997 -10.295695169466557 -0.08443133502203604
H -4.792213446420673 -10.149249536161213 1.3061539924095513
O -0.9335120373083603 -6.2725107058313 -4.076400725077198
H -1.4180937982130453 -7.023723131078131 -4.45033623563121
H -0.26606054374582544 -6.066799317777485 -4.748080167122369
O -1.819560452369465 9.005624511244106 1.7288199460798368
H -1.7426753670397614 8.223406070648236 1.162083365519158
H -1.842635048078126 8.642588707719959 2.626948284733316
O 6.782103536817335 1.2902628035875316 1.6774161668707483
H 7.3702527757405685 1.0784447713820173 0.9370237365430163
H 6.0617852578110165 1.7925989107090885 1.2678286222464852
O -1.7511822020209846 8.280073243470344 -3.266789371039379
H -1.37184635652793 8.300176796059926 -2.3753481108335546
H -2.4197132841932194 7.580125699551662 -3.220946462843864
O -0.6163286718127408 -1.1761501500431282 -8.556455727081133
H -0.4807639689833554 -0.2827771642881426 -8.906418977394654
H -1.547340200117873 -1.3639911548583057 -8.748537051974953
C 11.83959666919718 -7.002659204741834 -8.647931242382741
O 12.505476952955094 -6.169207320034825 -8.104995094312994
O 11.173716385439265 -7.836111089448843 -9.190867390452489
O -3.728559014102233 -6.286370488359093 5.604521262167653
H -3.6494011615006383 -6.001063307934099 4.681861409313175
H -3.090530966838625 -5.730720658038989 6.076893383773307
O 22.898057901914264 2.3919165797958883 4.766233056183584
H 23.350718531371026 1.7286337017905908 5.308562785393425
H 23.620116946353484 2.889687054805282 4.354144188519765
O 3.3758646201604607 -15.567375083656733 -5.9718123341581615
H 3.012108382289096 -15.114412103428979 -5.196265240260657
H 2.637236113163758 -15.58794176842111 -6.598683042063409
O 11.236271000838562 14.777146671763967 -4.1460304372818175
H 11.703715348440836 15.328086694567165 -3.500330638560854
H 10.568897542375424 15.37123171272065 -4.521047204040917
O 8.052671342019242 14.271010980810297 4.307497493865602
H 8.50344688506517 14.344019631085207 3.452840542991929
H 8.756772466727028 14.015995302026218 4.922453227280235
O 13.578670966583186 -6.281344424459441 -2.6788539500865474
H 13.06681733983276 -6.350236008605981 -1.858959340202924
H 14.370869248676584 -5.787310317883045 -2.419404286977251
O 1.4562918771689333 -1.9467915171641184 10.455097077845208
H 1.1721035062320944 -1.02267560082686 10.520013176745374
H 0.8179306257002241 -2.3456650038173286 9.844886623519479
O -7.347865333510212 -15.393963020999127 3.6383497676860728
H -8.011969082676767 -15.74360142593399 3.0254170201211137
H -6.615161048874696 -15.127915257470754 3.0627414259307564
O 7.554136953306813 -15.928060754282443 -0.537674295972602
H 6.689883323751964 -15.96550073867766 -0.9742877042295541
H 7.459480282936424 -16.524303235701396 0.22028148268850156
O -8.104762950205611 -11.72615835987633 -13.20253962147894
H -7.921422571554894 -11.69197785314661 -14.153426236915244
H -7.652869822262808 -12.530334915311716 -12.90579964623775
O -8.254027845844956 -16.57552087909091 -4.760879126465522
H -7.790422695321117 -17.135708063083168 -5.401369516868528
H -7.9116081351454435 -16.868190305382182 -3.9029424779076
O -13.085326079202268 8.781141112478803 -4.0963073184265255
H -13.450779882769965 9.327947535976831 -3.384679881083642
H -12.542835564628932 9.39792522990495 -4.610353365380303
O 4.606603655021953 6.311090272910281 4.97553821035407
H 4.409435089432833 6.171362370313459 5.913924072821864
H 5.562561341850339 6.165492063305872 4.913024158703977
O 2.6671261259955275 15.982233485120618 -8.779274222381128
H 2.5610223485394954 15.784881689078407 -9.722015763795572
H 2.8970882400247637 15.127196108912704 -8.385585950141927
O -2.0598511662549233 -17.317974154233276 -3.709527712458496
H -2.3658052793705147 -17.77476729468143 -4.507462211278525
H -2.8463958988838125 -17.281181003059615 -3.1447661770291946
O 11.16672205426741 -10.866812376564916 19.051438409874756
H 11.895790042938604 -11.49090016827006 18.91749195400697
H 11.198303282355695 -10.670031394262516 19.999722025327713
O -4.153718925624248 3.559945464970655 6.128380334421452
H -3.3745043768326712 3.417844604372437 5.570169451986519
H -4.632567245732432 2.718898707506039 6.080353442081591
O -6.527649338909713 15.636956494672692 -2.2891840996134336
H -7.385074210140324 15.186089162441338 -2.311736168736924
H -6.283070841837578 15.627975678793202 -1.3516006910485885
O 8.077579949374996 -3.229660324704385 -7.968991226317785
H 8.369779956091026 -3.234680971563058 -7.045107409985734
H 8.430233373692865 -2.3987961276765297 -8.321499655598753
O -1.2669773965597777 -13.520349274087225 2.383297841215
H -1.6391415348325116 -12.641485780689655 2.2157861369769636
H -1.3587195960594767 -13.63469652431235 3.34114439442533