194

C -5.0710522388059704 1.0783507462686561 0.47044029850746183
C -3.8153522388059704 0.1782507462686569 0.19534029850746193
C -4.11845223880597 -1.3219492537313435 0.5608402985074619
C -2.96945223880597 -2.3874492537313436 0.7034402985074619
C -2.52015223880597 0.7359507462686565 0.7384402985074618
C -2.20305223880597 0.7852507462686571 2.097440298507462
C -1.5755522388059702 1.205650746268656 -0.18965970149253808
C -0.9533522388059701 1.2695507462686564 2.508640298507462
H -2.91125223880597 0.4298507462686567 2.840840298507462
C -0.32655223880597006 1.6562507462686575 0.21554029850746192
H -1.7850522388059702 1.178550746268657 -1.2573597014925382
C 0.004447761194029898 1.6956507462686563 1.569740298507462
H -0.7158522388059702 1.2676507462686573 3.5705402985074617
H 0.3943477611940298 1.9193507462686572 -0.5551597014925382
C -1.76045223880597 -2.1592492537313435 -0.1734597014925381
C -0.5287522388059701 -1.936549253731343 0.464840298507462
C -1.8068522388059702 -2.121249253731343 -1.5681597014925381
C 0.6114477611940299 -1.614449253731343 -0.2582597014925381
H -0.4544522388059702 -1.954049253731343 1.5506402985074619
C -0.6479522388059701 -1.8270492537313432 -2.2998597014925384
H -2.74345223880597 -2.290549253731343 -2.092259701492538
C 0.5698477611940298 -1.5506492537313434 -1.6506597014925382
H 1.5072477611940298 -1.351949253731343 0.2991402985074618
H -0.7173522388059701 -1.7640492537313435 -3.3840597014925375
C 1.7791477611940298 -1.082849253731343 -2.4255597014925376
H 1.4739477611940297 -0.9102492537313429 -3.464259701492538
H 2.1252477611940295 -0.1337492537313434 -2.0010597014925384
C 1.3965477611940298 2.0964507462686566 1.997440298507462
H 1.51704776119403 1.8448507462686567 3.057640298507462
H 2.1256477611940294 1.5207507462686571 1.4165402985074618
C 3.94864776119403 -1.4275492537313434 -3.522959701492538
H 4.81734776119403 -2.087049253731343 -3.615159701492538
H 3.4305477611940303 -1.3641492537313429 -4.484459701492538
H 4.26984776119403 -0.441449253731343 -3.176459701492538
C 2.60904776119403 -3.4296492537313434 -2.8992597014925376
H 1.9825477611940296 -3.869549253731343 -2.119359701492538
H 2.06294776119403 -3.373349253731343 -3.845759701492538
H 3.5215477611940305 -4.019849253731343 -3.0234597014925377
C 3.7281477611940304 -2.060049253731343 -1.156659701492538
H 3.9048477611940298 -1.032549253731343 -0.8295597014925382
H 3.12924776119403 -2.623249253731343 -0.4404597014925382
H 4.68244776119403 -2.5769492537313434 -1.3005597014925383
C 3.1110477611940297 3.755250746268656 2.588740298507462
H 3.40124776119403 4.809350746268656 2.534540298507462
H 2.9823477611940303 3.461750746268656 3.634840298507462
H 3.86514776119403 3.1392507462686563 2.091540298507462
C 1.99744776119403 3.9574507462686572 0.40494029850746194
H 2.67914776119403 3.230350746268657 -0.04295970149253803
H 1.03214776119403 3.981150746268657 -0.10175970149253821
H 2.4399477611940297 4.958250746268657 0.368240298507462
C 0.7418477611940297 4.4992507462686575 2.475440298507462
H -0.18475223880597014 4.424250746268656 1.901240298507462
H 0.57844776119403 4.189650746268656 3.511940298507462
H 1.1210477611940297 5.524350746268658 2.4432402985074617
N 3.00114776119403 -2.025349253731343 -2.490159701492538
N 1.7831477611940298 3.586450746268657 1.862540298507462
C -3.55075223880597 -3.8435492537313434 0.6444402985074619
H -2.62515223880597 -2.2736492537313433 1.7424402985074618
H -4.67195223880597 -1.3478492537313436 1.5102402985074619
H -4.83415223880597 -1.6757492537313432 -0.1945597014925382
H -3.7169522388059697 0.17335074626865676 -0.900559701492538
H -3.9132522388059705 -4.043149253731343 -0.34225970149253815
H -4.35435223880597 -3.9354492537313432 1.3449402985074619
H -2.78115223880597 -4.545049253731343 0.8904402985074619
H -5.24235223880597 1.138950746268657 1.5249402985074618
H -5.92805223880597 0.6501507462686567 -0.006059701492538094
H -4.89895223880597 2.059650746268657 0.08004029850746197
C 0.8124764815329252 1.0373176641272865 -4.137994829422415
O 1.8249671178965778 1.2433440746551785 -3.4866951072967884
O 0.7567465094547071 0.9886513949560076 -5.372157391063753
O -0.31311470717778966 0.8456036085564463 -3.6637179259225907
O -8.786136766550388 4.0461941021320875 -0.0926579227808908
H -9.311663371976202 3.4748804393189148 0.48733332075009317
H -7.891491758205808 3.6783727686047154 -0.03538908355512271
O -4.987409299342251 4.984893733738832 -3.6084947592419856
H -5.323515833569197 4.79924446055675 -4.498176782167546
H -5.184620916675081 5.924184150638814 -3.475066744909066
O 2.7599512177055634 -5.533818716413851 9.354516440721621
H 2.837891998170801 -5.786045969299194 8.422167791051134
H 3.483476238722963 -4.903144150736262 9.487644501133973
O 5.592121198954927 -0.4797387047169863 5.017437867548186
H 5.343742637923957 -0.45338258009257193 4.081178927930001
H 5.31813191156775 -1.3627732137894883 5.307510049055053
O -7.757903768904697 -4.945492244653153 3.098201691379633
H -8.007590458874638 -5.329735671805774 2.24439790687065
H -8.35728723796624 -5.370079655744125 3.730204010725706
O -4.4833881046375605 2.3554923985114193 11.534850590582458
H -3.547476813988659 2.1648715049213165 11.371445915426515
H -4.915744009094087 2.1433066598212323 10.694013193413376
O -4.967496118595574 -3.4463541682431753 4.026037349812085
H -5.230454135948921 -2.5249855422095857 4.170606686016456
H -5.253262072562146 -3.6317308127480503 3.1188795556408127
O 0.3329161462004149 7.903987640900583 2.854360003351773
H -0.4922603143704285 7.482434322356385 3.1378101143839436
H 0.1292104930482978 8.851206826920974 2.8699087913668735
O 9.347656478186408 3.914591126403694 6.9486386793058665
H 8.460019270586894 4.258706566048916 6.767939734143718
H 9.186971940807837 3.027268945846599 7.303324133812864
O -3.10678548181952 -6.927020188053568 -4.076097001736449
H -2.1530850742063663 -6.779661411944359 -3.988300187887086
H -3.4537761355114815 -6.748933481943464 -3.1890544121967594
O 5.340759102555321 -4.621893860665903 2.950981898598461
H 4.888977904056761 -3.9368177314928934 2.4356841178730515
H 4.680127238090346 -5.325858175609837 3.034418864261456
O 7.187233206146303 -4.239520056432459 -0.8182501745916835
H 6.618156825763295 -4.677271048078369 -0.16748639294491707
H 7.987537160956505 -4.7856143993678115 -0.834265568097758
O 4.131085135813302 6.22644042268236 5.228529437623351
H 3.7172912780369485 5.37881322411131 5.006560673133487
H 4.04078626817606 6.750263090522468 4.4183332444328975
O -4.306017694855934 -8.560074889070487 -1.4392686760076971
H -3.659515181495934 -9.277177335640022 -1.3570133525131656
H -3.7737815890588187 -7.754522273094448 -1.3569786105071606
O -0.1551377466798004 -3.007426703168362 4.737631094538293
H -0.052640183399153107 -3.0592536016792886 5.699803417468166
H 0.46716265573030136 -3.66901432019872 4.399983381007878
O 2.0271488190107734 -6.060256648632995 3.1662293823401226
H 2.8343225474701548 -6.252851340699996 3.66657447682252
H 2.259830114107099 -5.282697925736687 2.6368676991214004
O 3.421371894250606 -8.354870145758005 -2.262637994038099
H 3.9477180222444406 -9.017972509938705 -1.7912333217406506
H 3.0483452730966247 -7.806625649932763 -1.55606807038739
O -3.2896208853299767 0.3716211119104509 -3.9452862587262754
H -3.8667551667313296 0.14938103788981105 -3.1993018569921325
H -3.4719010832896813 1.3087572454913239 -4.111152894517993
O -3.9051818997573733 4.924730672793676 4.440978152040041
H -4.139379782824747 4.307799189879136 3.731390769221246
H -3.0482799190762497 5.283731997851279 4.165661991214616
O -3.8886766614853516 -9.35256307845169 2.464193411506595
H -3.6476124843332043 -9.21473117207311 1.5358304517877113
H -3.9630586974630417 -8.455280063002487 2.822400680012133
C -12.757734604450757 -4.440248424369727 1.5888365845113999
O -12.244540216763937 -4.143927433547229 0.5488156000381421
O -13.270928992137577 -4.736569415192226 2.6288575689846576
O -7.3860462694703335 6.907128075901783 10.143659779963237
H -7.762220926348363 6.707019235667472 9.273363027997117
H -8.146918104838651 7.204653094459635 10.664730655924844
O -7.565708579899395 -3.7061244155311694 -7.262245771840705
H -6.632523267011604 -3.6776133610274244 -7.00278546951759
H -7.753460232926343 -2.803419811064531 -7.5602988848262545
O 4.437011979791434 -18.145466210414032 -10.408263008201112
H 4.992386554567833 -18.654754547411784 -9.799040693778865
H 3.543535740057556 -18.240442154902958 -10.045438362815155
O 14.97613468941837 -2.0390254616705406 -7.344841483270429
H 14.052521151761725 -1.8488726498941346 -7.121800459844438
H 15.113054242353845 -2.9430567991468157 -7.0239952254072495
O 16.618376711102083 -6.761058882611915 -0.6242780553558305
H 16.089244325045822 -7.313858398158917 -0.029804363307639026
H 17.17134816596069 -7.395938647876461 -1.103978167998294
O 1.1423350861939578 -9.587708303571455 15.909571485527877
H 1.327636312023535 -10.09101165897696 15.102529637143533
H 2.018214993584026 -9.427717163863878 16.291931482579653
O 3.3619906159008632 -11.760072499710258 -13.239580508842826
H 3.464688926677412 -11.746735982620983 -14.203033959288444
H 3.849208170799508 -10.977338641688041 -12.941404879382196
O 1.3935701729479804 -3.6075556689763837 -14.30762742100464
H 0.5502583781083414 -3.9344758598718848 -14.655356859461028
H 1.1483018719599913 -3.1534115847788655 -13.487530746447998
O -4.792677092248605 11.224556876324492 -19.509480619335733
H -5.413382763159994 11.955937815702551 -19.372463290092647
H -4.828830036536127 10.728029798539742 -18.67814688975063
O 2.513199978662133 9.07520094558352 14.722308417766687
H 2.581191056447625 9.732940332877174 14.013984008583906
H 2.6941835618806085 9.580493091584323 15.529083934310977
O 4.8877390127812665 12.812958010186797 -11.49886947437749
H 4.368433922226886 12.993976722893121 -12.29669264117227
H 5.793371891276982 12.709331180996738 -11.82758289661573
O 11.106601402659843 -6.260233863447282 0.9842977567925075
H 10.228311169524668 -6.17350617710625 0.584232847432425
H 11.1589995286327 -7.195174925977831 1.2334996634641509
O -13.37714299726342 6.612751659792876 7.742478427479408
H -13.414655935439477 6.840495218161525 8.683591071104486
H -13.41457156424601 5.644508831315006 7.734300911058933
O 4.485602663328513 -0.9079527762723034 8.936873166052582
H 4.553273751084528 -0.7294818825775449 9.886892176854845
H 4.49687380757507 -1.8751599148514413 8.879034972020182
O -12.17448347069734 -2.578593098360379 3.7909288226128206
H -11.331561146246731 -2.593181671547854 3.313187799279947
H -11.962867696022455 -2.133922054160669 4.62546364552861
O -5.85957730805945 15.183764105448212 -4.943953833821161
H -5.752579832720128 15.300187702904163 -5.899968709817568
H -5.789358932796868 14.225884719201222 -4.815507714850712
O -8.666117982294676 -7.675876201664545 -4.8153284903849665
H -8.583080666685298 -7.669596772668795 -3.8499100682032283
H -7.75435927801701 -7.775249335573385 -5.128031208203423
O -6.08002663833914 -6.390894603998392 13.172763835061915
H -6.26557718024177 -7.291847108284829 13.477432406331811
H -5.683862494407326 -6.516746538383162 12.297448345667158
O 2.15313446754225 -1.4494834169486757 -12.825381135544607
H 1.48904200099543 -1.6517394859435761 -12.149333034200854
H 1.7509216766918665 -0.735367475786507 -13.34231946625187
O 14.896100589413106 -9.255114579987483 -1.2267842073353474
H 15.658875422660808 -9.231688675601944 -0.6296300080972763
H 14.305062500593635 -9.910061833070158 -0.8259350866626356