194

C -5.0710522388059704 1.0783507462686561 0.47044029850746183
C -3.8153522388059704 0.1782507462686569 0.19534029850746193
C -4.11845223880597 -1.3219492537313435 0.5608402985074619
C -2.96945223880597 -2.3874492537313436 0.7034402985074619
C -2.52015223880597 0.7359507462686565 0.7384402985074618
C -2.20305223880597 0.7852507462686571 2.097440298507462
C -1.5755522388059702 1.205650746268656 -0.18965970149253808
C -0.9533522388059701 1.2695507462686564 2.508640298507462
H -2.91125223880597 0.4298507462686567 2.840840298507462
C -0.32655223880597006 1.6562507462686575 0.21554029850746192
H -1.7850522388059702 1.178550746268657 -1.2573597014925382
C 0.004447761194029898 1.6956507462686563 1.569740298507462
H -0.7158522388059702 1.2676507462686573 3.5705402985074617
H 0.3943477611940298 1.9193507462686572 -0.5551597014925382
C -1.76045223880597 -2.1592492537313435 -0.1734597014925381
C -0.5287522388059701 -1.936549253731343 0.464840298507462
C -1.8068522388059702 -2.121249253731343 -1.5681597014925381
C 0.6114477611940299 -1.614449253731343 -0.2582597014925381
H -0.4544522388059702 -1.954049253731343 1.5506402985074619
C -0.6479522388059701 -1.8270492537313432 -2.2998597014925384
H -2.74345223880597 -2.290549253731343 -2.092259701492538
C 0.5698477611940298 -1.5506492537313434 -1.6506597014925382
H 1.5072477611940298 -1.351949253731343 0.2991402985074618
H -0.7173522388059701 -1.7640492537313435 -3.3840597014925375
C 1.7791477611940298 -1.082849253731343 -2.4255597014925376
H 1.4739477611940297 -0.9102492537313429 -3.464259701492538
H 2.1252477611940295 -0.1337492537313434 -2.0010597014925384
C 1.3965477611940298 2.0964507462686566 1.997440298507462
H 1.51704776119403 1.8448507462686567 3.057640298507462
H 2.1256477611940294 1.5207507462686571 1.4165402985074618
C 3.94864776119403 -1.4275492537313434 -3.522959701492538
H 4.81734776119403 -2.087049253731343 -3.615159701492538
H 3.4305477611940303 -1.3641492537313429 -4.484459701492538
H 4.26984776119403 -0.441449253731343 -3.176459701492538
C 2.60904776119403 -3.4296492537313434 -2.8992597014925376
H 1.9825477611940296 -3.869549253731343 -2.119359701492538
H 2.06294776119403 -3.373349253731343 -3.845759701492538
H 3.5215477611940305 -4.019849253731343 -3.0234597014925377
C 3.7281477611940304 -2.060049253731343 -1.156659701492538
H 3.9048477611940298 -1.032549253731343 -0.8295597014925382
H 3.12924776119403 -2.623249253731343 -0.4404597014925382
H 4.68244776119403 -2.5769492537313434 -1.3005597014925383
C 3.1110477611940297 3.755250746268656 2.588740298507462
H 3.40124776119403 4.809350746268656 2.534540298507462
H 2.9823477611940303 3.461750746268656 3.634840298507462
H 3.86514776119403 3.1392507462686563 2.091540298507462
C 1.99744776119403 3.9574507462686572 0.40494029850746194
H 2.67914776119403 3.230350746268657 -0.04295970149253803
H 1.03214776119403 3.981150746268657 -0.10175970149253821
H 2.4399477611940297 4.958250746268657 0.368240298507462
C 0.7418477611940297 4.4992507462686575 2.475440298507462
H -0.18475223880597014 4.424250746268656 1.901240298507462
H 0.57844776119403 4.189650746268656 3.511940298507462
H 1.1210477611940297 5.524350746268658 2.4432402985074617
N 3.00114776119403 -2.025349253731343 -2.490159701492538
N 1.7831477611940298 3.586450746268657 1.862540298507462
C -3.55075223880597 -3.8435492537313434 0.6444402985074619
H -2.62515223880597 -2.2736492537313433 1.7424402985074618
H -4.67195223880597 -1.3478492537313436 1.5102402985074619
H -4.83415223880597 -1.6757492537313432 -0.1945597014925382
H -3.7169522388059697 0.17335074626865676 -0.900559701492538
H -3.9132522388059705 -4.043149253731343 -0.34225970149253815
H -4.35435223880597 -3.9354492537313432 1.3449402985074619
H -2.78115223880597 -4.545049253731343 0.8904402985074619
H -5.24235223880597 1.138950746268657 1.5249402985074618
H -5.92805223880597 0.6501507462686567 -0.006059701492538094
H -4.89895223880597 2.059650746268657 0.08004029850746197
C -1.2993926517119314 3.05928188059051 -2.612074901194236
O -1.1240350022107017 3.57135462139944 -1.5171745854203142
O -0.5011651043160368 2.3073338170368656 -3.1830725863001037
O -2.302229679969945 3.2137803906452582 -3.318542515133827
O -6.146209841260607 -4.8053145596907205 1.7767577361381437
H -6.512117818828711 -3.9880901090873824 2.147193838844253
H -6.072738826903146 -5.39640076161923 2.541075115398235
O 12.599091118367992 -0.6529746928670903 0.779109657352761
H 13.141534763279255 -0.8228674807327971 1.5638763039596384
H 12.536355840324147 0.313305426215976 0.742654744740408
O 5.919863515606843 5.420136920052668 7.745060998755705
H 5.850882055077948 5.266119793284451 8.699255758574353
H 5.401116676236327 4.701246264283805 7.353832311168366
O 9.345022761235274 2.2104188142465095 0.6947107846177016
H 9.817993961768579 2.54114930691764 1.4730956133390714
H 9.259253510773034 2.989211715925355 0.12454660100934056
O 0.4769841498918661 -3.92257499001707 -6.22788271017973
H 0.1996506354504275 -4.590145150566513 -6.8731761003609355
H -0.24608748453608098 -3.2775142272222486 -6.232978599529141
O 0.7834898484978732 11.352804836251007 -7.07537071989454
H 1.5173521889144785 10.813402371385173 -6.744525736382734
H 0.7285334041891351 12.085785952693854 -6.443959272051584
O 5.231635609467349 2.394585981575777 -2.1205514164728667
H 5.465817246264475 2.3302437802908162 -1.1824755138824494
H 5.927793205843439 2.953162830192542 -2.4978025920803497
O -6.898209250847759 5.787105812142294 1.6111983947458826
H -6.576299260872171 5.342326161719237 2.4096421171355447
H -6.191568928190742 5.645622271150924 0.9634300670825668
O 0.011256004445945683 -8.006860442427987 -0.2648722481189445
H -0.006971095831737356 -8.820825394697978 0.260576309012559
H -0.42782089047174093 -7.353567617649802 0.3002665930013433
O -7.7963181042918 -5.910377248223843 4.656884110326807
H -7.377023165584903 -5.047458498407844 4.793010310930411
H -8.741040237297426 -5.733629151841771 4.780262172131213
O 4.5382745565726985 0.8184648332840815 4.089858699574666
H 4.533286971930414 1.508811090851724 3.4098847842207114
H 3.77735626759795 1.0354045769520428 4.649235539836237
O -1.3387772541708443 -10.004228758182778 -6.462167379007439
H -1.331911742653519 -10.110765854503235 -7.425271770420547
H -0.5091127128424886 -9.541140936032516 -6.271987563731123
O -7.96315686822152 1.263677142092382 6.897618254824928
H -8.016500968778937 0.9520068810279094 7.813578631808411
H -7.7839650366513 0.4598968681552064 6.386942718864973
O 3.329934312317794 -0.9985833196926619 6.501284512509148
H 3.5468766096396402 -1.8946110654049284 6.202892697194929
H 2.3790025464713525 -1.0364300039261887 6.683653231034818
O 1.7735815746305323 2.5548498560343518 -12.213026191785149
H 1.0343200746493117 2.8308874719774826 -11.650653516302112
H 2.2860902360506596 1.9564713033579233 -11.648898614045672
O -3.060624654802016 -1.6858872505125557 6.2627352158851775
H -3.335440060922001 -2.5810052609150675 6.5121497241082515
H -2.949725161911272 -1.2302755487286015 7.110721786518289
O -4.0539904017761454 4.594885586291607 3.620821235738421
H -4.0071992389171145 4.860904161875199 4.55141892616258
H -3.1433604228377727 4.345757840749906 3.40253162957265
O 6.648827711661148 -3.6893275488529618 -4.805605454178745
H 6.6317268410090495 -3.883248617092639 -3.856358628313247
H 6.454163745320873 -4.542233749252242 -5.222281464802269
O -0.9794406208996989 6.178082156245033 5.569952282033434
H -1.774373002827288 5.629427644005359 5.647593065530104
H -1.1986999135242309 6.80991502089331 4.868757203579413
O 0.9288607137748124 -3.775928450284135 6.607761113220198
H 0.028454702599029102 -3.447161558701377 6.465814986335643
H 0.8399871693971251 -4.738460122073931 6.539965698837755
C 15.279938090525237 7.871485005144312 12.710751974745799
O 14.82044055269984 8.248901892325616 13.749615181959708
O 15.739435628350634 7.494068117963008 11.67188876753189
O -7.540531071883869 -4.857603317717056 -9.133431591957606
H -7.307887925081286 -5.796601225761442 -9.077507966949401
H -8.099105429004126 -4.801495489842585 -9.923247104288745
O -12.786767394048724 -0.7184507875143975 2.196393914212597
H -12.62056300968971 -0.30572902320047657 1.3355779032198611
H -12.464437058467722 -0.06513813514629918 2.8353365386476854
O -8.611527136574772 -5.067157932675084 14.647217335658288
H -7.673869748965486 -4.901210004434361 14.46769779501065
H -8.824599211405658 -4.452785787783259 15.365624673321456
O 3.1215308406309843 -7.29788255726339 20.562137377747437
H 3.2614804207616928 -7.853540766379755 19.780712124404012
H 2.324700606898107 -7.666750069430295 20.971966953762887
O 11.9059054336235 5.772957847223593 -2.3935047489205132
H 10.976149614702312 5.547286297357668 -2.547107566809053
H 11.912398986348213 6.141154946282449 -1.4972064312172768
O 5.537722555638304 8.075419095984305 -2.6407347722994174
H 5.4302804629386205 7.168722280494446 -2.3161975041823872
H 6.3798858335960755 8.054376053040395 -3.1195668387935895
O -4.2352370349262465 -17.932710893192667 4.233561002568562
H -4.916696314794551 -18.553562474639133 3.935024705618262
H -3.4039386217218954 -18.40700254256976 4.08206075888861
O 1.3135550362804318 -14.291994385949291 7.051098339169157
H 1.988121217271942 -13.860581221295469 7.596818510801018
H 1.3894621780209313 -15.22976634205424 7.283011703328892
O 12.770267292102151 5.391784148741272 5.1957388115929
H 11.813352724984012 5.373213178283808 5.044289192268927
H 13.065271011541103 4.505490157427018 4.938022473776625
O 0.0405641449826708 -16.712139057277756 -11.950162097798692
H 0.31803965911457144 -16.96719827418721 -12.842865571426286
H -0.5544600989187046 -15.961297441998505 -12.095575172294906
O -5.243331136406408 -6.942319561270541 -8.446144831805569
H -6.016844137896473 -6.794210224715954 -7.881601992110307
H -5.312345953541841 -7.875574042254659 -8.697610481624443
O -11.46679862714808 14.718653738739473 -13.744865690389139
H -11.414526101165162 14.710216098318307 -14.712421242360957
H -10.608732175531742 14.369177019155568 -13.461052492353144
O -8.326828752484005 -15.235435609650521 -11.424536877308256
H -8.914625233164719 -15.246769537812334 -12.194818771339133
H -7.654605548405372 -15.901401452079043 -11.633264941824574
O -6.263536919064764 -11.320856333596945 -5.089824681415696
H -6.760749233271527 -11.285303192986484 -5.920777896521028
H -5.70395050388965 -12.10616266599123 -5.1853178882573445
O 1.9923890267221394 -2.5405467092153287 -10.078530640316746
H 2.7304835145383404 -2.920989336133447 -9.579083654562519
H 1.2770738570733138 -2.477968420966261 -9.427861669018675
O -5.3768452358675995 19.440817384850256 -5.934260375290508
H -5.76983256344766 18.579783914282523 -6.141985385396582
H -5.180736168680814 19.824143577882108 -6.802341136396775
O 0.2997348426993063 -8.369894770812513 -15.005853481211094
H 0.5081681011765848 -8.227871562725673 -15.9414561436834
H 0.8634883375744513 -7.73330003498125 -14.541212669800837
O -5.230764256412278 -13.812955704699215 11.598319051073805
H -5.2410496579050925 -12.844010337402525 11.595780821293626
H -4.481731574482882 -14.04057260369199 11.02726517183423
O 11.022191384556265 -18.652366836185248 -8.257365195623933
H 11.346989105202342 -17.741674795847636 -8.19322624311582
H 11.799625103466639 -19.159032046678398 -8.53637974986281
O -9.355838780212933 -4.182338394283584 -0.708743788456959
H -10.00808701163099 -3.5094245542333495 -0.46231618168193345
H -9.830019356913999 -5.019958391226413 -0.5969070069361191