194

C -5.0710522388059704 1.0783507462686561 0.47044029850746183
C -3.8153522388059704 0.1782507462686569 0.19534029850746193
C -4.11845223880597 -1.3219492537313435 0.5608402985074619
C -2.96945223880597 -2.3874492537313436 0.7034402985074619
C -2.52015223880597 0.7359507462686565 0.7384402985074618
C -2.20305223880597 0.7852507462686571 2.097440298507462
C -1.5755522388059702 1.205650746268656 -0.18965970149253808
C -0.9533522388059701 1.2695507462686564 2.508640298507462
H -2.91125223880597 0.4298507462686567 2.840840298507462
C -0.32655223880597006 1.6562507462686575 0.21554029850746192
H -1.7850522388059702 1.178550746268657 -1.2573597014925382
C 0.004447761194029898 1.6956507462686563 1.569740298507462
H -0.7158522388059702 1.2676507462686573 3.5705402985074617
H 0.3943477611940298 1.9193507462686572 -0.5551597014925382
C -1.76045223880597 -2.1592492537313435 -0.1734597014925381
C -0.5287522388059701 -1.936549253731343 0.464840298507462
C -1.8068522388059702 -2.121249253731343 -1.5681597014925381
C 0.6114477611940299 -1.614449253731343 -0.2582597014925381
H -0.4544522388059702 -1.954049253731343 1.5506402985074619
C -0.6479522388059701 -1.8270492537313432 -2.2998597014925384
H -2.74345223880597 -2.290549253731343 -2.092259701492538
C 0.5698477611940298 -1.5506492537313434 -1.6506597014925382
H 1.5072477611940298 -1.351949253731343 0.2991402985074618
H -0.7173522388059701 -1.7640492537313435 -3.3840597014925375
C 1.7791477611940298 -1.082849253731343 -2.4255597014925376
H 1.4739477611940297 -0.9102492537313429 -3.464259701492538
H 2.1252477611940295 -0.1337492537313434 -2.0010597014925384
C 1.3965477611940298 2.0964507462686566 1.997440298507462
H 1.51704776119403 1.8448507462686567 3.057640298507462
H 2.1256477611940294 1.5207507462686571 1.4165402985074618
C 3.94864776119403 -1.4275492537313434 -3.522959701492538
H 4.81734776119403 -2.087049253731343 -3.615159701492538
H 3.4305477611940303 -1.3641492537313429 -4.484459701492538
H 4.26984776119403 -0.441449253731343 -3.176459701492538
C 2.60904776119403 -3.4296492537313434 -2.8992597014925376
H 1.9825477611940296 -3.869549253731343 -2.119359701492538
H 2.06294776119403 -3.373349253731343 -3.845759701492538
H 3.5215477611940305 -4.019849253731343 -3.0234597014925377
C 3.7281477611940304 -2.060049253731343 -1.156659701492538
H 3.9048477611940298 -1.032549253731343 -0.8295597014925382
H 3.12924776119403 -2.623249253731343 -0.4404597014925382
H 4.68244776119403 -2.5769492537313434 -1.3005597014925383
C 3.1110477611940297 3.755250746268656 2.588740298507462
H 3.40124776119403 4.809350746268656 2.534540298507462
H 2.9823477611940303 3.461750746268656 3.634840298507462
H 3.86514776119403 3.1392507462686563 2.091540298507462
C 1.99744776119403 3.9574507462686572 0.40494029850746194
H 2.67914776119403 3.230350746268657 -0.04295970149253803
H 1.03214776119403 3.981150746268657 -0.10175970149253821
H 2.4399477611940297 4.958250746268657 0.368240298507462
C 0.7418477611940297 4.4992507462686575 2.475440298507462
H -0.18475223880597014 4.424250746268656 1.901240298507462
H 0.57844776119403 4.189650746268656 3.511940298507462
H 1.1210477611940297 5.524350746268658 2.4432402985074617
N 3.00114776119403 -2.025349253731343 -2.490159701492538
N 1.7831477611940298 3.586450746268657 1.862540298507462
C -3.55075223880597 -3.8435492537313434 0.6444402985074619
H -2.62515223880597 -2.2736492537313433 1.7424402985074618
H -4.67195223880597 -1.3478492537313436 1.5102402985074619
H -4.83415223880597 -1.6757492537313432 -0.1945597014925382
H -3.7169522388059697 0.17335074626865676 -0.900559701492538
H -3.9132522388059705 -4.043149253731343 -0.34225970149253815
H -4.35435223880597 -3.9354492537313432 1.3449402985074619
H -2.78115223880597 -4.545049253731343 0.8904402985074619
H -5.24235223880597 1.138950746268657 1.5249402985074618
H -5.92805223880597 0.6501507462686567 -0.006059701492538094
H -4.89895223880597 2.059650746268657 0.08004029850746197
C 0.10306197433092124 1.7087810212520536 -3.917590181289647
O -0.03950586351468033 1.182196090927659 -5.010365648330925
O -0.779120526817899 1.8166100598344768 -3.0580796245160835
O 1.151597670826669 2.215342652845803 -3.502118652817172
O 6.8850399360400845 4.887968886719552 -6.111529818703816
H 7.110566690434608 5.8293890181523285 -6.154345424332686
H 7.187815100025745 4.614493339068969 -5.2326098739928835
O -5.024877057884484 -3.070555409002492 -4.54400537522087
H -4.689644582896355 -3.4356499622393164 -3.711363488327027
H -4.2965787333018435 -2.5196050918872412 -4.868038155631621
O 4.111475550069431 10.86718672687305 4.720874169872201
H 4.068357371012301 10.824407311474516 3.753776397590123
H 3.1864202467056173 10.964939483977606 4.992312981571887
O -6.991660885861623 -1.2001590395628372 2.964412446592533
H -7.061236705627929 -1.2473787150970534 1.9990643930666092
H -6.3993989668802 -1.9323950205614215 3.1924875038773712
O 7.4478113452247525 -1.9394030752641074 -7.804823296798079
H 7.991460450216758 -1.3312903800759672 -8.32790260005181
H 7.652904745547383 -2.812104253443828 -8.172642946963524
O 4.181713831878335 0.40775146268361073 9.190549112517774
H 4.049835790989779 1.0576531492935866 8.484005881729377
H 5.104320552063281 0.5361979971196824 9.457495309270861
O 2.9649670577465286 8.145706982651731 -1.966592547843725
H 2.5752692589029103 8.076212700476823 -1.0821302664425143
H 3.327338909310719 7.262509081403146 -2.132755277491591
O 10.723714152741499 -2.095365384305975 4.373607606220343
H 9.918749657862994 -2.1569680834452325 4.90952236282232
H 10.707314497285331 -2.8995947598151437 3.8333223971232866
O 0.4081978865825604 5.472778872090026 -4.633057023813291
H -0.5232773084393355 5.23911589853423 -4.762374202672039
H 0.8227883378343467 5.261029406919774 -5.482903401713998
O 6.6391868594529475 6.7243309675747485 -0.7463393109663113
H 6.951806344285542 6.623865693672013 0.16533121249194582
H 7.143980861845407 6.06160078018816 -1.2412470378964304
O -3.917594253641365 3.3459025907068374 -2.258269824588846
H -4.78804587410158 3.6100309395234 -1.9243273913917083
H -3.9374108283959677 2.3777350422983687 -2.2233292196465957
O 1.3165683792876444 6.0262162133446315 -8.522183444946878
H 1.489822517562141 6.250944628861077 -7.595659025554583
H 0.44982316411244083 5.593526656231974 -8.499947810561034
O -6.3088116236458465 -6.831728639823352 -4.734957004994471
H -6.3441036126849575 -6.806912112870249 -3.7669146648049265
H -5.5406789228436395 -6.283654017239275 -4.955293807044484
O -5.823235707033585 -6.572232507770528 -0.5449623052204059
H -5.362275388142094 -5.801208470079973 -0.18163755432830353
H -6.6504995065350085 -6.207505538861267 -0.8936323333053133
O 2.99012398545376 -9.188648946698299 2.911815110190231
H 3.312538462653606 -8.30859716648103 2.665796562254575
H 3.328173657658053 -9.318974250222443 3.8105362452949474
O -8.754297490199981 -4.05409531566476 2.1252054272221517
H -8.297455623683708 -4.435177906618829 1.3603270546885406
H -8.480683681815709 -4.616488223932218 2.8653484167126457
O -3.7013511314908034 -6.169249745386521 6.835045637285182
H -3.891456047785207 -7.109431118200489 6.697617605521852
H -4.49766574809066 -5.7200707441246506 6.513979911124929
O -5.2356912113579686 11.89870431548205 -2.3018669166603623
H -5.388509395104875 11.259764144534497 -1.589568231019423
H -4.651860390441828 11.429053339111977 -2.9163028183157103
O 3.574094254778556 0.508459007162354 4.031460179551016
H 3.538255602199957 1.4554963547600743 3.829462134668333
H 2.7731452934910146 0.1508352730793836 3.6196981481142156
O -1.9999847192743718 7.556589591967399 0.6427490525470269
H -1.6954877495761778 7.5525256643860255 1.5626579811031267
H -1.431659920244085 8.211982717243973 0.21097513201987098
C 12.785930822803776 -5.934586177861444 4.277927055480516
O 13.555005561306865 -6.765661441281058 3.889782481348109
O 12.01685608430069 -5.103510914441829 4.666071629612922
O -8.199874462581178 1.60313181459366 10.55558045141326
H -8.739245132125447 2.077965797208215 9.905519433746635
H -7.840056901817462 0.8533568538593861 10.058256838941494
O 3.9524953888497913 15.570521405934217 -0.832014522174946
H 3.3758551319487258 15.016712211234182 -0.28452137437602154
H 3.7308318158699256 16.47515084081047 -0.5646705671857477
O -5.640563910766587 7.517419425669706 9.88140216587533
H -4.830327019837785 7.662903481001932 10.39259481754603
H -5.55818122154127 8.127898488350567 9.133411289698152
O 11.797768338652872 4.229780285767761 17.231056819347675
H 11.662758027899708 4.656418054200764 18.090544915505408
H 11.238586953556961 3.439444679913696 17.27164934306209
O -9.824991939569147 17.07234126679964 -8.349283115372389
H -10.163494509015713 17.304150020505183 -9.227148748076822
H -9.274755750401674 16.290960315068233 -8.509426453359877
O -1.5225819722298324 -5.034611905102832 -12.133849015027423
H -1.081558150293458 -5.0444499205029905 -12.996616978524923
H -2.0982137829312135 -5.813780956722862 -12.1563334942562
O -0.8868545632827107 -19.041340984649217 6.201175209040126
H -1.0057404192669868 -18.82517176995382 7.138247447858917
H 0.06804687166760459 -19.17998230524648 6.1122720141994735
O -4.749032779847948 9.70567101187493 1.7466337190411254
H -4.712661824829695 9.822450711378536 0.7853808842911263
H -4.8375218431452405 10.607905019539576 2.088840418844271
O -6.287976215225799 -20.087548870528707 -5.286502968962861
H -6.711059784039117 -20.555597682580647 -6.021960622561599
H -6.243177103674969 -20.750997477559366 -4.581668995793765
O -8.957966514795054 -17.891791809600974 -13.435411415795343
H -8.942089236248378 -17.6865668436485 -12.488522836143144
H -8.476626918535786 -17.155890746011416 -13.84250325061977
O 15.728225394159498 6.888505664357278 -9.596377466485906
H 15.575785195884013 6.824647419033476 -10.551181879627098
H 15.165159601546284 7.6264694263579695 -9.318297723493641
O 8.782313585602045 -7.653294018250358 -8.770696109071055
H 9.216392961140786 -7.346799838992566 -9.581007018977239
H 9.463574265083732 -7.554959785949254 -8.0886578332757
O 10.666236864691887 -10.887529473837569 10.65330862154651
H 11.139890653513909 -10.496086972556444 9.904047509900293
H 11.32952930099393 -11.448988914420951 11.081990770491737
O 10.046353854245094 -15.46259682731248 9.583681185984428
H 9.470818505579055 -15.459463161819754 8.804119386332573
H 10.683864000619344 -14.754602043426928 9.40680229080263
O -7.631155372383335 -15.08214258046858 -3.2867381522728616
H -7.837349594488208 -14.150828381633268 -3.457340504889428
H -7.965109865208756 -15.235360278363357 -2.3900996085588746
O -15.127957625847833 -5.6733128981617025 -1.7577780425152691
H -15.089051900320849 -5.6033099155037736 -0.7920900577913136
H -15.92877652450445 -5.182475067892451 -1.99595709329634
O -6.7301219678101605 10.547130231498468 4.352971436638191
H -6.519257806136602 10.451841469723792 3.4120018759715562
H -7.481574353352428 11.158822089207257 4.363663853371824
O 0.9055091399043373 8.652736045677479 -19.51132876744588
H 0.7601104168243911 8.96695654262454 -18.60629172537243
H 0.9860400184166158 9.466330395440442 -20.031464284344914
O 5.339558173066258 4.3605478309366745 17.155785009160397
H 5.079424664758435 3.430597119945444 17.07522701835645
H 5.369542600159971 4.675391275817403 16.2398502496674
O -12.244786780288267 -4.202967641361544 12.74348504900667
H -11.916837483605066 -3.719655063508389 13.516676854313692
H -11.563642781305493 -4.056895362700347 12.069936471429314