194

C -5.0710522388059704 1.0783507462686561 0.47044029850746183
C -3.8153522388059704 0.1782507462686569 0.19534029850746193
C -4.11845223880597 -1.3219492537313435 0.5608402985074619
C -2.96945223880597 -2.3874492537313436 0.7034402985074619
C -2.52015223880597 0.7359507462686565 0.7384402985074618
C -2.20305223880597 0.7852507462686571 2.097440298507462
C -1.5755522388059702 1.205650746268656 -0.18965970149253808
C -0.9533522388059701 1.2695507462686564 2.508640298507462
H -2.91125223880597 0.4298507462686567 2.840840298507462
C -0.32655223880597006 1.6562507462686575 0.21554029850746192
H -1.7850522388059702 1.178550746268657 -1.2573597014925382
C 0.004447761194029898 1.6956507462686563 1.569740298507462
H -0.7158522388059702 1.2676507462686573 3.5705402985074617
H 0.3943477611940298 1.9193507462686572 -0.5551597014925382
C -1.76045223880597 -2.1592492537313435 -0.1734597014925381
C -0.5287522388059701 -1.936549253731343 0.464840298507462
C -1.8068522388059702 -2.121249253731343 -1.5681597014925381
C 0.6114477611940299 -1.614449253731343 -0.2582597014925381
H -0.4544522388059702 -1.954049253731343 1.5506402985074619
C -0.6479522388059701 -1.8270492537313432 -2.2998597014925384
H -2.74345223880597 -2.290549253731343 -2.092259701492538
C 0.5698477611940298 -1.5506492537313434 -1.6506597014925382
H 1.5072477611940298 -1.351949253731343 0.2991402985074618
H -0.7173522388059701 -1.7640492537313435 -3.3840597014925375
C 1.7791477611940298 -1.082849253731343 -2.4255597014925376
H 1.4739477611940297 -0.9102492537313429 -3.464259701492538
H 2.1252477611940295 -0.1337492537313434 -2.0010597014925384
C 1.3965477611940298 2.0964507462686566 1.997440298507462
H 1.51704776119403 1.8448507462686567 3.057640298507462
H 2.1256477611940294 1.5207507462686571 1.4165402985074618
C 3.94864776119403 -1.4275492537313434 -3.522959701492538
H 4.81734776119403 -2.087049253731343 -3.615159701492538
H 3.4305477611940303 -1.3641492537313429 -4.484459701492538
H 4.26984776119403 -0.441449253731343 -3.176459701492538
C 2.60904776119403 -3.4296492537313434 -2.8992597014925376
H 1.9825477611940296 -3.869549253731343 -2.119359701492538
H 2.06294776119403 -3.373349253731343 -3.845759701492538
H 3.5215477611940305 -4.019849253731343 -3.0234597014925377
C 3.7281477611940304 -2.060049253731343 -1.156659701492538
H 3.9048477611940298 -1.032549253731343 -0.8295597014925382
H 3.12924776119403 -2.623249253731343 -0.4404597014925382
H 4.68244776119403 -2.5769492537313434 -1.3005597014925383
C 3.1110477611940297 3.755250746268656 2.588740298507462
H 3.40124776119403 4.809350746268656 2.534540298507462
H 2.9823477611940303 3.461750746268656 3.634840298507462
H 3.86514776119403 3.1392507462686563 2.091540298507462
C 1.99744776119403 3.9574507462686572 0.40494029850746194
H 2.67914776119403 3.230350746268657 -0.04295970149253803
H 1.03214776119403 3.981150746268657 -0.10175970149253821
H 2.4399477611940297 4.958250746268657 0.368240298507462
C 0.7418477611940297 4.4992507462686575 2.475440298507462
H -0.18475223880597014 4.424250746268656 1.901240298507462
H 0.57844776119403 4.189650746268656 3.511940298507462
H 1.1210477611940297 5.524350746268658 2.4432402985074617
N 3.00114776119403 -2.025349253731343 -2.490159701492538
N 1.7831477611940298 3.586450746268657 1.862540298507462
C -3.55075223880597 -3.8435492537313434 0.6444402985074619
H -2.62515223880597 -2.2736492537313433 1.7424402985074618
H -4.67195223880597 -1.3478492537313436 1.5102402985074619
H -4.83415223880597 -1.6757492537313432 -0.1945597014925382
H -3.7169522388059697 0.17335074626865676 -0.900559701492538
H -3.9132522388059705 -4.043149253731343 -0.34225970149253815
H -4.35435223880597 -3.9354492537313432 1.3449402985074619
H -2.78115223880597 -4.545049253731343 0.8904402985074619
H -5.24235223880597 1.138950746268657 1.5249402985074618
H -5.92805223880597 0.6501507462686567 -0.006059701492538094
H -4.89895223880597 2.059650746268657 0.08004029850746197
C 3.1848994105583657 -1.3452938925412423 2.432521791268776
O 2.3152303799491993 -2.2019682969743166 2.4720216721363033
O 3.616134205366754 -0.8147058003475793 1.4024032096147723
O 3.768343609829507 -0.8763658459757049 3.416568404941668
O 1.719553700415811 1.8728279140892587 -9.999208409947867
H 2.3837161936400695 1.973051364259294 -9.300773875055619
H 2.1353992063452507 2.274214091392677 -10.776976753458992
O -1.1482096295653281 6.070297345054122 -1.8696692058169264
H -2.1013238057689443 6.099997462745523 -2.0418860082167503
H -0.8076631966451578 5.461658751483383 -2.5423869280017817
O 4.315484256663224 2.898295918979012 -3.839909011052985
H 4.847425662785671 3.7069747729671874 -3.794696087404482
H 4.344879772635989 2.548012617346844 -2.936914295377217
O -0.9190141565919254 2.7791753405144277 -2.3091835981513595
H -0.4995305566183825 2.8670605871199246 -3.178250367555373
H -1.5768050507082703 3.490537234474678 -2.293777763577923
O 3.4605719154691386 5.209350371243211 -3.221921095268927
H 4.111507304849815 5.841378788334663 -3.562201208911647
H 2.6131312858862374 5.547779640787241 -3.547914888381662
O 2.3942338474003373 8.435285189839213 -1.432617487917224
H 2.4119444127974434 8.415262316031896 -0.46398299684341754
H 1.6303363831699287 7.885909568776062 -1.6641537386941307
O -0.2814532523584028 -6.8993989658451245 -6.352567155106919
H -0.14763901727837014 -6.5790201320173995 -5.447902294384931
H 0.5887285541080054 -6.80008793025314 -6.76715476491274
O -8.283470202156797 -4.445646470373763 -2.493682755901036
H -8.623230828348746 -3.5602022797935353 -2.6924757617070325
H -7.60253116803282 -4.2897336368251615 -1.822135911339057
O 9.024323521487023 -0.9529117469221954 -1.3131827743152218
H 8.105896721216364 -0.9111174728479576 -1.6193082520187514
H 9.410121592893866 -0.11706501815050491 -1.6156427524948538
O -6.368475288784694 2.2876524890162333 -5.780799258662045
H -6.163995297844963 1.3969395643019635 -5.458641260232329
H -5.591900159533465 2.5301771650981824 -6.307178204308412
O 3.8998694268387664 -0.21278851113176772 -7.327287650951273
H 3.598112907680017 -0.23583966509105575 -6.406755737139297
H 4.7520552740909 -0.6735290946580172 -7.305855415065719
O 1.493060393959832 0.6578221137839211 -5.662419289483646
H 1.3613809355360547 -0.2633198343066099 -5.932836353658973
H 0.6138196538546798 1.0555321867352376 -5.750307645438236
O -2.0443326645946693 -10.351486863524773 -1.7443666913973144
H -1.9978223841125988 -10.89583992320059 -2.5446690699587293
H -2.252917234326725 -10.985476183925972 -1.0418626250838736
O -4.408630903949259 7.069022395623121 0.809020440347499
H -4.776436674267714 6.521810885701699 0.09891774662639619
H -4.591293014311836 7.976802686959244 0.5234833317265821
O -3.3111600126209306 5.031954976557766 2.5831931082854553
H -3.456685500492285 5.229865056734696 1.6458450995692866
H -4.13062723953531 5.3194215376535405 3.0130749345645196
O -9.007136365092958 -0.2264977758909099 0.8216516342795459
H -9.370957222227204 -0.2752495850397061 1.7184375629820554
H -9.771896788025748 -0.3903206831395378 0.24958040193494657
O 7.0935777819330434 -5.8599363179264605 1.911290685590095
H 6.409294487059343 -6.083972860223246 1.2628067945237906
H 7.276856940993243 -6.700120404130212 2.3579016969233964
O -3.2628407639191916 -1.9311677377415069 9.042032559182957
H -3.482869092952769 -2.524896649963592 8.308519866645007
H -3.095043466756317 -2.5297049995100447 9.785375789218353
O 1.166482917606991 -4.42647438790633 7.094429757172277
H 1.5376312667490808 -4.103971107072921 7.929419513804531
H 1.2069162172776258 -5.391069542455225 7.177395294587145
O -3.7083639338825822 6.690106480069891 -8.682571261010004
H -4.265751143201813 6.720327825616541 -7.890502118787767
H -3.9573771653845764 7.4869201708733 -9.17454920460624
C -11.2699567310911 -14.302221125976917 -1.197725403835987
O -11.272714504965233 -13.413263272323722 -0.39612413985771244
O -11.267198957216968 -15.19117897963011 -1.9993266678142625
O 1.8468297833746903 12.381741622414278 11.735242319483302
H 1.6608483172040642 12.667372388722484 10.82816276592738
H 2.522874806518679 13.004169972613955 12.042663886472265
O -0.2787651061942489 8.159599306404186 -13.946611798490984
H -0.4594680362466699 8.648027727230815 -13.129451174317698
H -0.025464690189949124 8.848099474462149 -14.579674482698643
O -7.915732974601477 2.458218296679946 -1.264009136564781
H -7.368021075777232 2.7055545954539424 -2.0241431958563787
H -8.7968031984744 2.790728024120795 -1.492295110863961
O 8.332426461830998 -4.300098055121548 -22.159887427312505
H 7.434391604759792 -4.282767686917005 -21.796293683247796
H 8.558138255213358 -5.242201236354656 -22.18128197191106
O 9.625254530289231 2.946564267441036 -13.204414882718737
H 9.684784044294394 3.069055406456057 -14.163799849624679
H 10.265904235725094 2.243876491585916 -13.017975109899933
O 8.416917624035374 7.291463230501201 8.914990735745578
H 8.987013536406536 7.14397432695864 8.145442146682154
H 7.974409177275499 8.131393779957445 8.720916288853946
O 13.160967178433618 -8.175816013104297 -8.236291657336137
H 13.383375581194795 -9.053587977645533 -7.891301458132386
H 12.283484257758726 -8.29445720298694 -8.629877653386675
O -2.0524448351333096 -8.942626346797361 6.887151010174289
H -1.8189339159931943 -8.569125635626179 6.0240535496885315
H -2.7761075488915488 -9.555762090207654 6.688810945717385
O -9.987487768671558 -9.953408556069965 2.3537412070787083
H -9.374707869831424 -9.239657201932319 2.1213037812106874
H -10.769871826108755 -9.490302048046566 2.6889567991899392
O 10.912888896646892 -0.3814117622149915 14.739866320528922
H 10.754308067740272 -1.0686810377424383 14.075426390573421
H 11.207278044627653 0.3822294482024926 14.221070526787994
O -19.458765591573 -7.788054008519194 -16.00304079113031
H -19.47943883694785 -7.702057338291503 -15.038082477763652
H -18.51497879875353 -7.757799507573145 -16.220556535783526
O 16.518726077156263 -8.623410386781424 -4.633332160084393
H 16.555900686267673 -8.52018032808507 -3.670560660548308
H 17.216062567345904 -8.034640119688572 -4.9589597638550185
O -2.373701211085712 11.856770982064912 -13.770661177154789
H -2.4881742000115397 11.809147518331105 -14.731699832677231
H -2.7019738623577156 12.738617257856767 -13.539260752352053
O 2.960754210888487 -11.5710133759248 -0.23884885078214058
H 3.13237779537251 -11.452243631879174 -1.1851080383455657
H 3.2316446569481245 -12.484943530080608 -0.06474547959608895
O -5.2422989529284285 16.226078670183426 -0.5717261819453912
H -6.097227183024686 16.625962554652435 -0.35227696862610713
H -5.441510489985257 15.28198654143917 -0.6609828917581528
O -7.722980529663522 -12.451678184770763 6.753040816648434
H -7.801438139066931 -12.496499631188081 5.788259598771674
H -8.228903883444968 -11.660695269814664 6.992518441169149
O -13.733453826700709 -10.733328055363542 2.552303468595245
H -13.685486454284703 -10.485060350503215 1.6168732815652922
H -13.42593729737101 -9.942580347121913 3.020399175048136
O -6.285078070240729 -3.092654846541379 -10.294841319861174
H -7.175881694757573 -3.4155621644380867 -10.497738149546626
H -6.247174612851476 -2.224911473681927 -10.724430322369903
O 0.35113761836549884 -17.619853208364447 -12.492589540949284
H -0.3788128111029554 -17.523015884195615 -11.86269886784272
H 0.9546778437211909 -16.89692658614843 -12.264382968806972
O 1.4231505587487927 -19.990441343901253 -4.013132049470534
H 1.2523998538910757 -19.27261198315957 -4.641250320616804
H 2.365379467018599 -19.90061420491456 -3.8055321606888883