194

C -5.0710522388059704 1.0783507462686561 0.47044029850746183
C -3.8153522388059704 0.1782507462686569 0.19534029850746193
C -4.11845223880597 -1.3219492537313435 0.5608402985074619
C -2.96945223880597 -2.3874492537313436 0.7034402985074619
C -2.52015223880597 0.7359507462686565 0.7384402985074618
C -2.20305223880597 0.7852507462686571 2.097440298507462
C -1.5755522388059702 1.205650746268656 -0.18965970149253808
C -0.9533522388059701 1.2695507462686564 2.508640298507462
H -2.91125223880597 0.4298507462686567 2.840840298507462
C -0.32655223880597006 1.6562507462686575 0.21554029850746192
H -1.7850522388059702 1.178550746268657 -1.2573597014925382
C 0.004447761194029898 1.6956507462686563 1.569740298507462
H -0.7158522388059702 1.2676507462686573 3.5705402985074617
H 0.3943477611940298 1.9193507462686572 -0.5551597014925382
C -1.76045223880597 -2.1592492537313435 -0.1734597014925381
C -0.5287522388059701 -1.936549253731343 0.464840298507462
C -1.8068522388059702 -2.121249253731343 -1.5681597014925381
C 0.6114477611940299 -1.614449253731343 -0.2582597014925381
H -0.4544522388059702 -1.954049253731343 1.5506402985074619
C -0.6479522388059701 -1.8270492537313432 -2.2998597014925384
H -2.74345223880597 -2.290549253731343 -2.092259701492538
C 0.5698477611940298 -1.5506492537313434 -1.6506597014925382
H 1.5072477611940298 -1.351949253731343 0.2991402985074618
H -0.7173522388059701 -1.7640492537313435 -3.3840597014925375
C 1.7791477611940298 -1.082849253731343 -2.4255597014925376
H 1.4739477611940297 -0.9102492537313429 -3.464259701492538
H 2.1252477611940295 -0.1337492537313434 -2.0010597014925384
C 1.3965477611940298 2.0964507462686566 1.997440298507462
H 1.51704776119403 1.8448507462686567 3.057640298507462
H 2.1256477611940294 1.5207507462686571 1.4165402985074618
C 3.94864776119403 -1.4275492537313434 -3.522959701492538
H 4.81734776119403 -2.087049253731343 -3.615159701492538
H 3.4305477611940303 -1.3641492537313429 -4.484459701492538
H 4.26984776119403 -0.441449253731343 -3.176459701492538
C 2.60904776119403 -3.4296492537313434 -2.8992597014925376
H 1.9825477611940296 -3.869549253731343 -2.119359701492538
H 2.06294776119403 -3.373349253731343 -3.845759701492538
H 3.5215477611940305 -4.019849253731343 -3.0234597014925377
C 3.7281477611940304 -2.060049253731343 -1.156659701492538
H 3.9048477611940298 -1.032549253731343 -0.8295597014925382
H 3.12924776119403 -2.623249253731343 -0.4404597014925382
H 4.68244776119403 -2.5769492537313434 -1.3005597014925383
C 3.1110477611940297 3.755250746268656 2.588740298507462
H 3.40124776119403 4.809350746268656 2.534540298507462
H 2.9823477611940303 3.461750746268656 3.634840298507462
H 3.86514776119403 3.1392507462686563 2.091540298507462
C 1.99744776119403 3.9574507462686572 0.40494029850746194
H 2.67914776119403 3.230350746268657 -0.04295970149253803
H 1.03214776119403 3.981150746268657 -0.10175970149253821
H 2.4399477611940297 4.958250746268657 0.368240298507462
C 0.7418477611940297 4.4992507462686575 2.475440298507462
H -0.18475223880597014 4.424250746268656 1.901240298507462
H 0.57844776119403 4.189650746268656 3.511940298507462
H 1.1210477611940297 5.524350746268658 2.4432402985074617
N 3.00114776119403 -2.025349253731343 -2.490159701492538
N 1.7831477611940298 3.586450746268657 1.862540298507462
C -3.55075223880597 -3.8435492537313434 0.6444402985074619
H -2.62515223880597 -2.2736492537313433 1.7424402985074618
H -4.67195223880597 -1.3478492537313436 1.5102402985074619
H -4.83415223880597 -1.6757492537313432 -0.1945597014925382
H -3.7169522388059697 0.17335074626865676 -0.900559701492538
H -3.9132522388059705 -4.043149253731343 -0.34225970149253815
H -4.35435223880597 -3.9354492537313432 1.3449402985074619
H -2.78115223880597 -4.545049253731343 0.8904402985074619
H -5.24235223880597 1.138950746268657 1.5249402985074618
H -5.92805223880597 0.6501507462686567 -0.006059701492538094
H -4.89895223880597 2.059650746268657 0.08004029850746197
C 2.743871278852275 -2.1903355278315413 3.0594955234956234
O 1.5399933385574303 -2.2659267704108617 2.8678203620459555
O 3.3550294863401824 -1.1565751840727787 3.353530659477591
O 3.537327287911146 -3.1359144121658753 2.9890929696399184
O 11.082229023864102 2.115204885673739 -6.077879534636825
H 10.700493871158404 2.579825911757223 -5.3180289360255655
H 10.946267133416624 2.725722429796657 -6.817977255862926
O -6.0126071160918135 0.24676300143429897 3.3604575837162916
H -6.2613878483340555 0.42960884495241647 4.2789579384648135
H -5.875891206425086 -0.7123569197188089 3.3414923209642216
O -4.308556813476521 1.9172218212310779 -8.485423785717376
H -4.403547310616302 1.0005314460621328 -8.784794656754887
H -4.787815434271058 2.431981416002473 -9.151978868426156
O -0.46731379961741304 -6.165779328213182 6.6775180947048405
H -0.2347259476836392 -6.280328075421787 7.611193002017753
H -1.0038904340283783 -6.9461803837396205 6.472526260142043
O 1.1506897717825835 4.8944258066725865 -6.790063859940503
H 1.6498437909862738 4.751178640056885 -7.6081670754759125
H 1.802608037941992 4.744961258065701 -6.088904201048572
O 3.2011677444124547 -7.391425284989138 -4.426125711258961
H 3.017200784154629 -6.607307890240483 -4.964905281849829
H 4.168380819401058 -7.41751903052576 -4.37340068574963
O -2.245915996236508 9.99811121791025 -2.848114855266658
H -2.6234596311691267 9.573804426525133 -2.0630085520144594
H -2.680307779065692 10.863772744049417 -2.878045533055381
O -2.963064296001021 6.5090791135308015 -1.4910300315124942
H -3.6076155241569126 5.916224458219636 -1.9058124188659258
H -2.1562422090114186 6.378673858073078 -2.0116013845417866
O 4.9032325321471415 -6.003988402565376 0.6174615892497646
H 4.252694418642717 -5.7637282218069785 1.2942500091566411
H 4.364277569497448 -6.315751977750594 -0.12502946505526635
O -8.739171265273923 -1.178568798488902 1.794513676018323
H -9.347209693825985 -0.46939577587250536 1.5369670777160636
H -9.32030885861002 -1.9354138074226594 1.9631157945209963
O -4.028373818391816 3.0516794773575766 8.447436784615855
H -4.257989609669588 2.111659378494791 8.396386230947133
H -3.059613447247486 3.0551619079147114 8.468724346188573
O -5.471069665777851 7.4796988163260405 -0.7871639892047542
H -5.083503062175388 7.461955877897336 -1.6751080599704573
H -4.770747884360883 7.125185324960276 -0.21898133264735709
O 3.981518692142985 1.4969506224029205 -4.014440503338911
H 4.125318788741126 1.5601780292523915 -4.97062625105818
H 3.0846782408991276 1.841888064970912 -3.8893113299724797
O 6.1804367889215035 2.0809780513262264 3.3007993372346345
H 5.742515060063208 1.652572464909295 4.051572651771406
H 6.837227976518978 1.4303347428912159 3.010539857832082
O 2.319662537498646 -5.6125692701786 6.695048173803529
H 2.426498405963544 -4.958327451446531 7.401816238115654
H 1.918012575921142 -5.110490490639922 5.970095656874497
O -2.6189688390245176 -5.012604120295919 4.351739150813391
H -2.1929817970248897 -4.708650341505852 3.53619362951636
H -2.600365773136767 -4.234853177852071 4.929423616388918
O -7.736566870491027 -1.072959391783729 -0.9960267827631704
H -8.193335834645719 -1.3890692271358782 -1.7900066579984852
H -7.645851843882031 -1.866097260278943 -0.44678635289097185
O 0.46617426303848397 -10.128616985080667 -3.4464490434833097
H 0.024451204385480763 -10.295465826483852 -4.29262252479589
H 1.1395125749486836 -9.465525822052225 -3.660662888805
O 5.139246093260724 -5.062055357775051 -9.808295976588887
H 5.293067532611013 -4.226484557355324 -9.342326278880826
H 4.427681759471921 -4.85444239823415 -10.432423369202258
O -1.113312077649317 -5.732111111374406 -4.118841654469859
H -1.2097916521491179 -6.665060765198726 -4.362283622982732
H -1.3026956416368667 -5.717366185662337 -3.1686425189424066
C 6.702204500161629 13.438587514212958 -4.0601503002786385
O 6.147011229594187 12.555025069220573 -3.4737237529466585
O 7.25739777072907 14.32214995920534 -4.646576847610617
O -7.202853477485807 9.91311074209429 3.5519771977716603
H -6.4987351541688 10.102914467138568 2.913886851795037
H -6.7771767776396645 9.339093672852316 4.206397319503066
O -5.327716822497294 22.540535912994457 -3.9372789712690466
H -5.331359417013061 22.046811268745 -3.1034983861832917
H -6.253799695126215 22.797364548713 -4.061260861875366
O -7.329382635120273 -7.907480275503763 -10.651437963822573
H -7.153675515280341 -8.845379700034387 -10.820076732801354
H -6.613936286403819 -7.638740127509488 -10.055722260433523
O -0.016960420850993252 -13.556631490205461 -4.960314485951333
H -0.10234706953977568 -13.49260771769988 -3.99720627101396
H -0.3077247261666787 -12.68905221617434 -5.279256904462764
O -8.314414625424838 17.56900008084429 5.4687704662437016
H -8.751043268974062 18.119446531740785 4.801438847610344
H -8.186655510523924 16.718075557956922 5.023161883282552
O -4.508328784627286 -11.188439482696221 9.277246987211402
H -4.470713477149654 -11.729843587752404 8.474480495277614
H -5.139944129394875 -10.487266631162319 9.057291007920242
O -2.62167018356241 9.988688671847758 -16.439694103464877
H -3.300161946530734 10.06902035828719 -17.12683535869406
H -2.5755963054453663 9.036415098213439 -16.26644808471416
O 5.609902960723753 9.125978574847009 9.909221057816504
H 5.608823606687578 9.106275521479906 10.878023401735467
H 6.347445649766988 8.547237898853485 9.664166051563958
O -1.0646164814355537 -12.479426183542767 10.538570998650975
H -1.549113696717936 -13.11430760174509 9.989794732669086
H -1.7617446182972225 -11.957645986480763 10.963682432335972
O 8.632119289058727 4.668088185381719 6.996917946944284
H 8.844168603967718 4.669849176120958 6.051402561634111
H 8.743849486231186 5.592952929118017 7.263570367022171
O 8.55354823482473 9.560622700895664 -3.774130051939971
H 8.62988714918157 8.943661204880783 -4.517432305057707
H 8.871831611358767 9.051395413924652 -3.013639942388086
O 7.184438125246486 12.48306965573418 7.765983449928995
H 7.204929275705346 13.431301032492534 7.964489686062343
H 6.994357415004242 12.068963689446544 8.621172035317498
O 2.7812486385420883 9.247136521236566 13.553759391826748
H 3.0658006830876605 9.25845480724686 12.62754700406316
H 3.590685324976711 9.040568532635207 14.04478267135525
O 14.122042778748765 -3.357304693513865 -12.684589775264476
H 14.192862093621487 -3.29650903393049 -13.649087504301086
H 14.986706612341319 -3.6955537501800837 -12.407270510081828
O -2.3764181886060185 15.335598294796519 3.675099955575949
H -2.6011329942913144 14.513310977299021 3.2143243263499777
H -1.859217731379792 15.834386227537456 3.02496440855748
O 21.447458745562905 -0.025821910846095086 4.588858761857391
H 21.023973533329258 0.2923094182767816 3.7774278717934653
H 21.650205000363666 -0.9540811457053495 4.398620244824749
O 11.332797462443146 -5.695939691096145 -14.35226895629917
H 11.214165535155454 -5.383761011817706 -13.442632603171184
H 10.429093437260224 -5.847192005250024 -14.667552505872056
O -0.742967584464981 5.47577155801555 16.550758789136324
H 0.09814940943704568 5.230251338447108 16.13698423548146
H -0.7423149184147647 6.444441012083221 16.525440671448262
O 6.662982586224972 7.072839850100958 -13.412118313691703
H 6.038962480524271 7.286810190152415 -14.121895009674002
H 6.098922160317711 6.948972777119562 -12.634008598769482
O 4.1294529348220195 20.976302188863478 6.668078415646849
H 4.622623692288327 21.341170019165347 7.418159362805833
H 3.2236655459480446 21.29069584633666 6.808320273155601