194

C -5.0710522388059704 1.0783507462686561 0.47044029850746183
C -3.8153522388059704 0.1782507462686569 0.19534029850746193
C -4.11845223880597 -1.3219492537313435 0.5608402985074619
C -2.96945223880597 -2.3874492537313436 0.7034402985074619
C -2.52015223880597 0.7359507462686565 0.7384402985074618
C -2.20305223880597 0.7852507462686571 2.097440298507462
C -1.5755522388059702 1.205650746268656 -0.18965970149253808
C -0.9533522388059701 1.2695507462686564 2.508640298507462
H -2.91125223880597 0.4298507462686567 2.840840298507462
C -0.32655223880597006 1.6562507462686575 0.21554029850746192
H -1.7850522388059702 1.178550746268657 -1.2573597014925382
C 0.004447761194029898 1.6956507462686563 1.569740298507462
H -0.7158522388059702 1.2676507462686573 3.5705402985074617
H 0.3943477611940298 1.9193507462686572 -0.5551597014925382
C -1.76045223880597 -2.1592492537313435 -0.1734597014925381
C -0.5287522388059701 -1.936549253731343 0.464840298507462
C -1.8068522388059702 -2.121249253731343 -1.5681597014925381
C 0.6114477611940299 -1.614449253731343 -0.2582597014925381
H -0.4544522388059702 -1.954049253731343 1.5506402985074619
C -0.6479522388059701 -1.8270492537313432 -2.2998597014925384
H -2.74345223880597 -2.290549253731343 -2.092259701492538
C 0.5698477611940298 -1.5506492537313434 -1.6506597014925382
H 1.5072477611940298 -1.351949253731343 0.2991402985074618
H -0.7173522388059701 -1.7640492537313435 -3.3840597014925375
C 1.7791477611940298 -1.082849253731343 -2.4255597014925376
H 1.4739477611940297 -0.9102492537313429 -3.464259701492538
H 2.1252477611940295 -0.1337492537313434 -2.0010597014925384
C 1.3965477611940298 2.0964507462686566 1.997440298507462
H 1.51704776119403 1.8448507462686567 3.057640298507462
H 2.1256477611940294 1.5207507462686571 1.4165402985074618
C 3.94864776119403 -1.4275492537313434 -3.522959701492538
H 4.81734776119403 -2.087049253731343 -3.615159701492538
H 3.4305477611940303 -1.3641492537313429 -4.484459701492538
H 4.26984776119403 -0.441449253731343 -3.176459701492538
C 2.60904776119403 -3.4296492537313434 -2.8992597014925376
H 1.9825477611940296 -3.869549253731343 -2.119359701492538
H 2.06294776119403 -3.373349253731343 -3.845759701492538
H 3.5215477611940305 -4.019849253731343 -3.0234597014925377
C 3.7281477611940304 -2.060049253731343 -1.156659701492538
H 3.9048477611940298 -1.032549253731343 -0.8295597014925382
H 3.12924776119403 -2.623249253731343 -0.4404597014925382
H 4.68244776119403 -2.5769492537313434 -1.3005597014925383
C 3.1110477611940297 3.755250746268656 2.588740298507462
H 3.40124776119403 4.809350746268656 2.534540298507462
H 2.9823477611940303 3.461750746268656 3.634840298507462
H 3.86514776119403 3.1392507462686563 2.091540298507462
C 1.99744776119403 3.9574507462686572 0.40494029850746194
H 2.67914776119403 3.230350746268657 -0.04295970149253803
H 1.03214776119403 3.981150746268657 -0.10175970149253821
H 2.4399477611940297 4.958250746268657 0.368240298507462
C 0.7418477611940297 4.4992507462686575 2.475440298507462
H -0.18475223880597014 4.424250746268656 1.901240298507462
H 0.57844776119403 4.189650746268656 3.511940298507462
H 1.1210477611940297 5.524350746268658 2.4432402985074617
N 3.00114776119403 -2.025349253731343 -2.490159701492538
N 1.7831477611940298 3.586450746268657 1.862540298507462
C -3.55075223880597 -3.8435492537313434 0.6444402985074619
H -2.62515223880597 -2.2736492537313433 1.7424402985074618
H -4.67195223880597 -1.3478492537313436 1.5102402985074619
H -4.83415223880597 -1.6757492537313432 -0.1945597014925382
H -3.7169522388059697 0.17335074626865676 -0.900559701492538
H -3.9132522388059705 -4.043149253731343 -0.34225970149253815
H -4.35435223880597 -3.9354492537313432 1.3449402985074619
H -2.78115223880597 -4.545049253731343 0.8904402985074619
H -5.24235223880597 1.138950746268657 1.5249402985074618
H -5.92805223880597 0.6501507462686567 -0.006059701492538094
H -4.89895223880597 2.059650746268657 0.08004029850746197
C 2.265574712067484 -2.8596941094549257 2.4518152463165706
O 3.1248492231169362 -3.706017490979607 2.2590471287624667
O 2.4752226425640877 -1.6481857184691395 2.5819176210432566
O 1.053366581983978 -3.083772959973326 2.5466229596620686
O -1.5162921942126721 2.4209652725413005 8.793324169366395
H -1.8879237222451208 3.1522318928439432 8.277469059569643
H -0.575196764296618 2.640178782312797 8.865758782810365
O -4.2363493455459444 2.498860951539217 6.585298498727507
H -4.6443607973043 3.371027463738752 6.694016423338569
H -4.927160625982658 1.968615484052289 6.16034972142493
O 1.6384474654458892 8.245485872387906 7.810931065790847
H 1.3571983181080292 8.481227023798095 6.914107569469789
H 1.9306763232120483 7.325129610761617 7.730255228801282
O 3.9043695265110707 -3.624103785476943 -9.22489070409624
H 4.7409914601800205 -3.4612060893175247 -9.685862978305849
H 3.363547493316304 -4.091058111664068 -9.879434155645644
O -2.166317891416916 3.062885238517669 -3.401764095138771
H -1.9482784381969254 3.1825020031525018 -2.4652183229750055
H -2.252798442372648 2.1028862860094453 -3.5011877834102534
O -1.9477478970704172 6.60606566196244 3.1487965027837133
H -1.797923282998204 7.367549879325871 2.568570918528317
H -2.8370325213742364 6.753948306716292 3.504135108422645
O 0.2714850608708637 -8.489378384451275 -0.1698292985515093
H -0.18987545008140339 -9.302670264360911 0.08447397297073245
H 0.5855031684831672 -8.669683644984179 -1.0686310483360475
O -0.26585784554747005 0.6407293395119993 -11.022712173935556
H -0.8035197006711603 0.018582271734209677 -10.510052333007431
H 0.3966508039792751 0.07889776468561216 -11.452118176607096
O -0.8169207535999365 -2.2479853625388815 5.3780542121470924
H -0.2689301325069501 -1.9384353392573255 6.1148394041674745
H -0.674277300716215 -3.206363028535001 5.3667830556296785
O 6.33587137769386 -4.895462961673383 6.013522076081112
H 5.373627624108179 -5.000344073730482 5.968198043614815
H 6.677635372987557 -5.777232640131323 5.802236605749921
O -3.1203564284391128 -1.0746540700236102 6.611446075248956
H -2.77856991284957 -1.1021282474449388 5.705137902365041
H -2.3412486263242624 -1.248396104134551 7.16077901852358
O 1.3413008016048371 3.821987913026935 -2.676775180872439
H 2.210521495476465 4.029099546442662 -2.3019051853417274
H 1.0726094154305454 4.644393687963204 -3.1131415689538438
O 5.872780444326416 -2.408105177288226 2.6453060549772522
H 5.499774226212966 -2.326164628652946 3.535878603755874
H 6.1735363129493575 -3.328196356857142 2.601259794428386
O -2.5039552083821306 -5.864574206744811 7.325522222884676
H -2.262227271153908 -5.723164512493183 8.253174237184785
H -2.8760641273827208 -5.0138949162752695 7.048318973505366
O -5.5678039047194625 -6.445868671148633 1.1386109532553377
H -5.413931204545457 -7.063075060531494 1.8696012554797472
H -5.979681593438305 -6.99300365868908 0.4530731940875885
O -2.3088138299441847 5.693520994617173 -6.038925031202963
H -2.8249019621817877 5.569447713209869 -5.2282301332886325
H -1.8539163547778506 4.846366254115337 -6.1587543975225785
O -3.4903699120451095 -4.448023730507588 -4.647945164612282
H -4.3732346465060035 -4.202417003459791 -4.332993496615165
H -2.9983875722081703 -4.643672642572014 -3.836380734146915
O -7.339673866904247 5.612993424839026 0.12797326611903737
H -6.615959040035097 5.179494411625239 -0.34876860514090136
H -8.0475422966368 5.678572853029686 -0.530497362752256
O -7.407442963386906 -5.626297072306397 -1.3973074637688219
H -8.107768852389972 -5.884829277751353 -0.7795112960566604
H -7.020369986088897 -6.4690185012816706 -1.6783004311034633
O 2.8941979022599873 -3.07113589812774 6.6185457325933355
H 2.53327203501763 -3.588944876288651 7.35378293063986
H 2.22461232861135 -2.3883592994409875 6.462234440143383
C 9.664006988320393 -11.452700171211504 -4.29448806239191
O 9.644917214132917 -11.54955769735312 -3.101562055696105
O 9.68309676250787 -11.355842645069886 -5.487414069087714
O -5.548340948371003 11.149951768478823 2.1658808287938247
H -5.603533039375515 10.80128385050219 1.2634663602903609
H -6.209491557909075 11.858127269112744 2.1840267955449777
O 1.8475364488254256 -6.540335390175975 0.13276622657013548
H 2.30673218930124 -5.765456072886364 -0.22454130548825257
H 0.9438514427758791 -6.4537515055975305 -0.20608268529551732
O -13.676107151226812 1.8752420037053108 1.0534002558444606
H -14.287995151755542 1.2862496531593095 0.5868721830479227
H -13.777157536486296 2.7251489572885683 0.5990777556425266
O -5.50386497118398 0.28894790256849756 -9.506554456718426
H -6.076888520082941 1.0105699372401031 -9.206766184126495
H -4.615496097940486 0.675802410260931 -9.496245274882387
O -6.892016394341612 0.0735265900861819 3.9366595836217777
H -7.4274178983350305 0.7611464599417981 3.5129952105605864
H -7.459775367283422 -0.26053531845471856 4.647303189240002
O -6.801379650690483 -8.691773193629828 -10.668190025225265
H -5.850536353511465 -8.855070002102265 -10.758735778590367
H -7.099129915506813 -9.378091796443467 -10.052338176536198
O 11.288058449204987 -12.11634114915588 -1.6933079325927904
H 11.599009798837487 -12.604247090535239 -0.9159892029660996
H 12.055764954013087 -12.103992578777607 -2.2844392036188994
O 12.643134825853984 1.7875466235394943 -13.565386970543642
H 13.173987306916848 2.3664063598257483 -14.132911777011177
H 13.28961523348875 1.3997540756481448 -12.956583252877333
O 10.163066770231346 -14.637446653208798 7.163152526292485
H 9.349528716135044 -14.164979263614248 7.39531143137026
H 9.866234617316369 -15.543433790095845 6.989832230045718
O 0.49300408378061755 7.887161950413439 -14.772395703630377
H 0.8553736733261782 8.039948791311721 -15.658009512646984
H 0.7167007648486634 8.694525454680429 -14.28548101792366
O 10.112669563412389 8.659489975341506 3.611708619407683
H 9.909502403514445 8.680820680767619 4.558933757928103
H 9.419196734737087 9.205094141625818 3.211242049114641
O 6.506302409391788 10.082330308134932 -2.4857948424030303
H 7.114471837294322 9.391037781001213 -2.1837816874018268
H 6.728176096098061 10.846932796218978 -1.9334208326387654
O 14.330030451393274 -7.793168574996838 -0.9237941548135848
H 14.179191029765954 -7.551979300297165 0.0025117123561004817
H 14.990540610029885 -7.152672208339676 -1.2278544760276662
O 4.803039655644849 -10.532307767977573 0.5832906338582209
H 5.583847914761751 -10.061505722442561 0.255188129578106
H 4.673170768831708 -10.176963121154186 1.475381547673555
O 3.1812415850931868 -5.425832829138513 -6.0964786205503625
H 4.124717691492102 -5.345390906018087 -6.302268053124126
H 2.739704023974685 -5.187011280000165 -6.925315633532218
O -14.073312178137982 -6.623513363515562 -6.471419206272688
H -14.339015578962925 -6.923831501253862 -7.353563228434297
H -13.722684767814151 -7.421592084444997 -6.04822572968161
O 4.3848989544993815 -10.23457651574909 -7.738696026167363
H 4.438962917944454 -9.890575124314843 -6.834424226624818
H 4.179646895290584 -9.45359996029383 -8.27433504296859
O -10.487160353357796 7.240479895092331 9.215166670315945
H -11.047574244587354 7.210554702541561 8.425224830515225
H -11.091268023800659 7.017656577692195 9.939297622585558
O -7.260937783213675 1.9634243445902233 15.24801578899197
H -7.479332730270391 1.6480926577714428 14.358163592676132
H -7.84909318150459 2.7224140064238753 15.378284223353061
O -3.3304843191356985 -8.861292851099165 2.903553229584024
H -3.577304376236051 -8.054813165957047 2.4264392665038703
H -4.123355419028945 -9.41592397679306 2.851575564519136