194

C -5.0710522388059704 1.0783507462686561 0.47044029850746183
C -3.8153522388059704 0.1782507462686569 0.19534029850746193
C -4.11845223880597 -1.3219492537313435 0.5608402985074619
C -2.96945223880597 -2.3874492537313436 0.7034402985074619
C -2.52015223880597 0.7359507462686565 0.7384402985074618
C -2.20305223880597 0.7852507462686571 2.097440298507462
C -1.5755522388059702 1.205650746268656 -0.18965970149253808
C -0.9533522388059701 1.2695507462686564 2.508640298507462
H -2.91125223880597 0.4298507462686567 2.840840298507462
C -0.32655223880597006 1.6562507462686575 0.21554029850746192
H -1.7850522388059702 1.178550746268657 -1.2573597014925382
C 0.004447761194029898 1.6956507462686563 1.569740298507462
H -0.7158522388059702 1.2676507462686573 3.5705402985074617
H 0.3943477611940298 1.9193507462686572 -0.5551597014925382
C -1.76045223880597 -2.1592492537313435 -0.1734597014925381
C -0.5287522388059701 -1.936549253731343 0.464840298507462
C -1.8068522388059702 -2.121249253731343 -1.5681597014925381
C 0.6114477611940299 -1.614449253731343 -0.2582597014925381
H -0.4544522388059702 -1.954049253731343 1.5506402985074619
C -0.6479522388059701 -1.8270492537313432 -2.2998597014925384
H -2.74345223880597 -2.290549253731343 -2.092259701492538
C 0.5698477611940298 -1.5506492537313434 -1.6506597014925382
H 1.5072477611940298 -1.351949253731343 0.2991402985074618
H -0.7173522388059701 -1.7640492537313435 -3.3840597014925375
C 1.7791477611940298 -1.082849253731343 -2.4255597014925376
H 1.4739477611940297 -0.9102492537313429 -3.464259701492538
H 2.1252477611940295 -0.1337492537313434 -2.0010597014925384
C 1.3965477611940298 2.0964507462686566 1.997440298507462
H 1.51704776119403 1.8448507462686567 3.057640298507462
H 2.1256477611940294 1.5207507462686571 1.4165402985074618
C 3.94864776119403 -1.4275492537313434 -3.522959701492538
H 4.81734776119403 -2.087049253731343 -3.615159701492538
H 3.4305477611940303 -1.3641492537313429 -4.484459701492538
H 4.26984776119403 -0.441449253731343 -3.176459701492538
C 2.60904776119403 -3.4296492537313434 -2.8992597014925376
H 1.9825477611940296 -3.869549253731343 -2.119359701492538
H 2.06294776119403 -3.373349253731343 -3.845759701492538
H 3.5215477611940305 -4.019849253731343 -3.0234597014925377
C 3.7281477611940304 -2.060049253731343 -1.156659701492538
H 3.9048477611940298 -1.032549253731343 -0.8295597014925382
H 3.12924776119403 -2.623249253731343 -0.4404597014925382
H 4.68244776119403 -2.5769492537313434 -1.3005597014925383
C 3.1110477611940297 3.755250746268656 2.588740298507462
H 3.40124776119403 4.809350746268656 2.534540298507462
H 2.9823477611940303 3.461750746268656 3.634840298507462
H 3.86514776119403 3.1392507462686563 2.091540298507462
C 1.99744776119403 3.9574507462686572 0.40494029850746194
H 2.67914776119403 3.230350746268657 -0.04295970149253803
H 1.03214776119403 3.981150746268657 -0.10175970149253821
H 2.4399477611940297 4.958250746268657 0.368240298507462
C 0.7418477611940297 4.4992507462686575 2.475440298507462
H -0.18475223880597014 4.424250746268656 1.901240298507462
H 0.57844776119403 4.189650746268656 3.511940298507462
H 1.1210477611940297 5.524350746268658 2.4432402985074617
N 3.00114776119403 -2.025349253731343 -2.490159701492538
N 1.7831477611940298 3.586450746268657 1.862540298507462
C -3.55075223880597 -3.8435492537313434 0.6444402985074619
H -2.62515223880597 -2.2736492537313433 1.7424402985074618
H -4.67195223880597 -1.3478492537313436 1.5102402985074619
H -4.83415223880597 -1.6757492537313432 -0.1945597014925382
H -3.7169522388059697 0.17335074626865676 -0.900559701492538
H -3.9132522388059705 -4.043149253731343 -0.34225970149253815
H -4.35435223880597 -3.9354492537313432 1.3449402985074619
H -2.78115223880597 -4.545049253731343 0.8904402985074619
H -5.24235223880597 1.138950746268657 1.5249402985074618
H -5.92805223880597 0.6501507462686567 -0.006059701492538094
H -4.89895223880597 2.059650746268657 0.08004029850746197
C 2.1628956200349383 -0.7120707575246514 4.150293357196959
O 2.554913478915259 -1.4916225630657782 5.004925722250177
O 2.865413591116767 0.12737238700073594 3.5754584491438717
O 1.0029815346881108 -0.641984775998512 3.7279952939672647
O -8.213428143949546 5.838215829947255 -0.24375984857077126
H -9.017279771292001 5.643237124664929 0.2609908053221319
H -8.005685212719737 5.001197649458093 -0.6855803826733172
O -0.6211762204887958 7.0456530980076195 -3.1395016603933583
H -0.35194672672161653 6.319794944809367 -3.722264715177624
H -0.7980378758692352 6.611604009249875 -2.291395954891583
O -2.527919817474906 4.143456592358961 -7.846015996264123
H -3.4867343401749 4.259286790458464 -7.767114582032094
H -2.3082289451862947 3.520819432709026 -7.136776380650239
O 0.14450538833851168 -4.582478866248612 6.565160352174988
H 0.9579530522608719 -4.092785148337598 6.371587839669354
H -0.5629501403343542 -3.966661133992136 6.321773540928595
O -2.551049519547899 3.8808801432814315 -3.1738473727653393
H -2.5948557380974755 3.9763744595085893 -4.137138194731735
H -1.6019717318697255 3.8222091867125365 -2.9873774929155488
O -6.092481023545879 5.78409527809505 -2.141896731473377
H -6.441015695041729 6.6759665865348765 -2.290411070333686
H -6.0518125442784605 5.397857309118216 -3.0296626073746324
O -7.401877915084155 3.6837793489114654 2.820881278731995
H -7.349152063839164 3.58104728575733 1.8587828093898033
H -6.480426916584273 3.620284265973015 3.1138972784763963
O 7.448073958764794 -1.4027372786663477 -0.2864389087639637
H 7.4048265620735 -1.2989657465309388 -1.2488985124345264
H 7.715059981685895 -0.5272232488159172 0.031610759369538055
O -2.7339436377952544 -7.083315595316204 -1.6801836742313454
H -3.0772469312169752 -6.525167009026277 -0.9663346977325644
H -2.995657358736326 -6.6170677410504535 -2.488317828294741
O 6.371980585631285 -7.930849627091203 -2.6498161745266557
H 6.331788239430087 -7.649991890620823 -1.723279146625678
H 7.241701712483222 -7.626083419289918 -2.949256760269174
O 1.3171917727507154 1.7433322245594924 -8.256973824506654
H 1.369826380289757 1.6325705487247055 -7.295761669904206
H 0.7739407771294471 0.9960756790447538 -8.549288646645184
O -3.122854775889126 -2.8029507056911114 6.421516711298297
H -2.7345342197985207 -2.9932428401627025 7.2886749472481895
H -3.984731425073331 -3.244967971636654 6.4489269739207895
O 0.6589173230854675 9.538153398327992 -1.645027617178458
H 0.006822438955674137 9.007790029301937 -2.1271627805788085
H 0.37576896190908293 10.452279708216146 -1.7972184166158613
O 3.8207664814019493 3.65783683816731 7.250549724670489
H 2.9053935372334454 3.3400696509928367 7.241398509477514
H 3.9065999027722924 4.099607452411074 8.10870664066345
O 2.8390341928499003 -1.1604245965470197 -8.389666923714488
H 3.337745417525943 -1.6166543319540994 -7.695326301388162
H 2.61572455418115 -1.8635525144445455 -9.017923145848995
O -8.924207307113159 -3.8845519971417666 -4.388790783098967
H -8.714949580964358 -4.753392140420915 -4.763351013734445
H -9.891543404454286 -3.8408632858564804 -4.425041515327038
O 9.159507945596117 2.853964602466801 0.5927830342876115
H 9.383747100172888 2.920867787279291 -0.34754037939336324
H 8.766971577491702 3.714929600663062 0.8016284697089019
O -3.9700620036988443 -6.669195632758928 -4.854295223348124
H -4.282419917447475 -5.944570332011737 -4.291873616245724
H -3.0501992079646465 -6.799434794466743 -4.578882547384017
O 3.2045405089280097 -8.160567608635214 0.46336585420623644
H 3.5034830727765187 -8.859725868444386 -0.13728248564020884
H 3.646136619068428 -7.363726082833987 0.13321679307229095
O -2.712555675416712 -1.6325429451112463 -4.372277445082427
H -2.1399757497394103 -1.2966563630023509 -5.078180972181267
H -3.2897701953389684 -2.2680811310476043 -4.821584196097412
C 14.316068927021895 -11.99709828232603 -2.473823615573248
O 14.343295255666355 -12.03715359617143 -1.2777999719268145
O 14.288842598377435 -11.95704296848063 -3.6698472592196807
O -7.4286287874353825 -6.201433487916793 14.018159716955536
H -7.500146810984679 -6.497996919135602 13.098430049894976
H -8.348802029330649 -6.0860555775982075 14.299106485953633
O -2.6970290023432835 -4.934560214631355 19.317826349394
H -2.1608643918551076 -4.404767738937338 19.926771995620385
H -2.245367740587267 -4.840336617223444 18.46571957050976
O -2.340552146041043 14.141031679320655 -8.228619376668854
H -2.071696756932498 14.09028752766812 -9.158194100787556
H -2.7261484074357716 15.026015240102346 -8.144467343748879
O 9.957216905896127 1.620317760827854 16.231681777505166
H 10.87448345802235 1.8714636603305972 16.41746435584186
H 9.443991170865056 2.400571702371785 16.490071165652154
O 1.8965745130961755 -15.532421303482103 1.5594395523351259
H 2.046707746408403 -14.669402947970882 1.145161038282167
H 2.657147967946186 -15.644372900656638 2.1493181872826783
O -3.014852154779092 1.8697219830757086 5.8117838059817535
H -3.1550120441571936 1.8337799756662485 4.853644601892443
H -2.6207799952868123 1.010061777637045 6.023097337489429
O 14.987389778987449 8.298985509889034 -1.5689397490021149
H 14.702535313174158 8.706864183557004 -2.400480654654435
H 15.5111431798572 8.990152910914475 -1.1365834802409145
O 0.2514492737736318 10.294170327141117 -7.320455497337843
H -0.016568280386316303 10.221858565003453 -6.3920671321486475
H 0.6782168586540283 11.16248670222064 -7.373916189103944
O 4.334097897950283 13.510475555171528 -6.083569442967392
H 4.498107891812474 13.099310511759729 -6.945550525062296
H 3.390416486350931 13.356353893386743 -5.926490319368648
O -11.610544022762976 -6.872234102337634 12.361221248517275
H -12.297103107437852 -6.222538018614891 12.147916351841815
H -10.905220073312645 -6.6853175307814166 11.72361457829695
O -10.237165717743387 -4.149923311365686 2.832036851317599
H -10.418296435016845 -4.192142725383221 1.8810497108998014
H -11.047181402583277 -4.491151310653804 3.239958396611777
O -5.153510891037332 13.82778426027189 8.182130087207181
H -5.043894002971545 13.888202677207072 9.143015673344168
H -5.109708264349311 14.74848386286043 7.883206157103657
O -5.947956020074265 -8.575228800266814 -6.535859164867409
H -6.246391446496578 -8.756738237122791 -5.632001887700069
H -6.4599083538211515 -9.19249409523606 -7.079780398041521
O -5.1218661182809555 10.515203800853026 7.843974416257961
H -5.166967699960848 9.896539533412737 7.099536555572097
H -4.176587047359506 10.710612135819598 7.928974445690132
O -20.04662101494951 0.7867704945394314 -10.321298184912823
H -20.302740819310706 1.2060537598282832 -11.156505671806169
H -19.519140574899083 0.02160765773808926 -10.595619461598265
O -17.496725636584426 -0.37498919257079244 -3.456859835195649
H -16.614293541473163 -0.09538779728749613 -3.7433978155284153
H -17.988034500506394 0.4554830320191794 -3.3680148650719115
O 11.14936386134142 -3.0731226382545707 8.596270173024985
H 11.73753254358765 -3.0234480501887235 7.82779285167762
H 10.90111349525367 -4.008718620458094 8.640922811490409
O 6.25159618004709 2.5893549983108564 -9.646302091699232
H 6.094599150958429 2.6684111704903377 -10.59922885247241
H 5.861642701202861 3.3959602305576526 -9.27713244512821
O 16.531820198968916 3.015442510322642 0.08876293828786874
H 17.105402804056265 2.238961390496721 0.17271186678071615
H 17.031266544855775 3.6142790561016405 -0.48648490683607815
O -7.8849453998808325 2.1026837249917207 11.557143621019172
H -7.2572324701931645 2.366150377839534 12.246729843068376
H -8.055818874156177 2.9229507896964364 11.070393025077287