194

C -5.0710522388059704 1.0783507462686561 0.47044029850746183
C -3.8153522388059704 0.1782507462686569 0.19534029850746193
C -4.11845223880597 -1.3219492537313435 0.5608402985074619
C -2.96945223880597 -2.3874492537313436 0.7034402985074619
C -2.52015223880597 0.7359507462686565 0.7384402985074618
C -2.20305223880597 0.7852507462686571 2.097440298507462
C -1.5755522388059702 1.205650746268656 -0.18965970149253808
C -0.9533522388059701 1.2695507462686564 2.508640298507462
H -2.91125223880597 0.4298507462686567 2.840840298507462
C -0.32655223880597006 1.6562507462686575 0.21554029850746192
H -1.7850522388059702 1.178550746268657 -1.2573597014925382
C 0.004447761194029898 1.6956507462686563 1.569740298507462
H -0.7158522388059702 1.2676507462686573 3.5705402985074617
H 0.3943477611940298 1.9193507462686572 -0.5551597014925382
C -1.76045223880597 -2.1592492537313435 -0.1734597014925381
C -0.5287522388059701 -1.936549253731343 0.464840298507462
C -1.8068522388059702 -2.121249253731343 -1.5681597014925381
C 0.6114477611940299 -1.614449253731343 -0.2582597014925381
H -0.4544522388059702 -1.954049253731343 1.5506402985074619
C -0.6479522388059701 -1.8270492537313432 -2.2998597014925384
H -2.74345223880597 -2.290549253731343 -2.092259701492538
C 0.5698477611940298 -1.5506492537313434 -1.6506597014925382
H 1.5072477611940298 -1.351949253731343 0.2991402985074618
H -0.7173522388059701 -1.7640492537313435 -3.3840597014925375
C 1.7791477611940298 -1.082849253731343 -2.4255597014925376
H 1.4739477611940297 -0.9102492537313429 -3.464259701492538
H 2.1252477611940295 -0.1337492537313434 -2.0010597014925384
C 1.3965477611940298 2.0964507462686566 1.997440298507462
H 1.51704776119403 1.8448507462686567 3.057640298507462
H 2.1256477611940294 1.5207507462686571 1.4165402985074618
C 3.94864776119403 -1.4275492537313434 -3.522959701492538
H 4.81734776119403 -2.087049253731343 -3.615159701492538
H 3.4305477611940303 -1.3641492537313429 -4.484459701492538
H 4.26984776119403 -0.441449253731343 -3.176459701492538
C 2.60904776119403 -3.4296492537313434 -2.8992597014925376
H 1.9825477611940296 -3.869549253731343 -2.119359701492538
H 2.06294776119403 -3.373349253731343 -3.845759701492538
H 3.5215477611940305 -4.019849253731343 -3.0234597014925377
C 3.7281477611940304 -2.060049253731343 -1.156659701492538
H 3.9048477611940298 -1.032549253731343 -0.8295597014925382
H 3.12924776119403 -2.623249253731343 -0.4404597014925382
H 4.68244776119403 -2.5769492537313434 -1.3005597014925383
C 3.1110477611940297 3.755250746268656 2.588740298507462
H 3.40124776119403 4.809350746268656 2.534540298507462
H 2.9823477611940303 3.461750746268656 3.634840298507462
H 3.86514776119403 3.1392507462686563 2.091540298507462
C 1.99744776119403 3.9574507462686572 0.40494029850746194
H 2.67914776119403 3.230350746268657 -0.04295970149253803
H 1.03214776119403 3.981150746268657 -0.10175970149253821
H 2.4399477611940297 4.958250746268657 0.368240298507462
C 0.7418477611940297 4.4992507462686575 2.475440298507462
H -0.18475223880597014 4.424250746268656 1.901240298507462
H 0.57844776119403 4.189650746268656 3.511940298507462
H 1.1210477611940297 5.524350746268658 2.4432402985074617
N 3.00114776119403 -2.025349253731343 -2.490159701492538
N 1.7831477611940298 3.586450746268657 1.862540298507462
C -3.55075223880597 -3.8435492537313434 0.6444402985074619
H -2.62515223880597 -2.2736492537313433 1.7424402985074618
H -4.67195223880597 -1.3478492537313436 1.5102402985074619
H -4.83415223880597 -1.6757492537313432 -0.1945597014925382
H -3.7169522388059697 0.17335074626865676 -0.900559701492538
H -3.9132522388059705 -4.043149253731343 -0.34225970149253815
H -4.35435223880597 -3.9354492537313432 1.3449402985074619
H -2.78115223880597 -4.545049253731343 0.8904402985074619
H -5.24235223880597 1.138950746268657 1.5249402985074618
H -5.92805223880597 0.6501507462686567 -0.006059701492538094
H -4.89895223880597 2.059650746268657 0.08004029850746197
C 3.3040914800060355 -0.23941508738956685 2.8739723529225234
O 4.381483031430427 0.2977102849441793 2.667818822963234
O 2.7423393641572913 -1.0279690876211816 2.1050454297639063
O 2.6088064917798564 -0.07754024738320986 3.8834393933553644
O -3.740708675661449 -2.828692678318858 -7.740111184737653
H -4.124910601656859 -2.8470650565714193 -6.850718868221053
H -2.7990105763782385 -2.6611681999577828 -7.584862406139436
O 4.192131477192003 3.3741822438077143 8.933173718234366
H 3.6710056899912598 3.026381574831251 9.672382731622278
H 3.563472517566915 3.4021190521460527 8.196309150268874
O 1.4332394589028858 -4.90843250023432 5.584361484902727
H 1.1329318211823827 -4.083340867702425 5.994247417269996
H 0.611988762051237 -5.377989394314348 5.374538796800133
O -3.554869224883804 -7.031249889187609 -2.2580658256756747
H -3.3163083969964045 -6.970279410955181 -3.1952630776358952
H -2.941321070224907 -7.691818290539811 -1.902861668394741
O 5.0194434761587035 7.623346012077484 3.775291722030844
H 4.58784354915373 7.741941097333936 2.915859313017595
H 4.873398130753792 6.688316906610323 3.98350621075543
O 2.4842543593229296 -8.023958562662132 -2.947879590402311
H 2.025748967985675 -8.32619603058009 -3.7462483498119052
H 3.2333947340651488 -7.511941501278724 -3.2878636666226346
O 4.606660288273386 -2.993765788640368 2.034649570447595
H 5.277751984461175 -3.024881773700256 1.336340836661778
H 4.176657962348839 -3.860701498024814 1.9848256826670627
O -3.917714482115643 2.6660159174400326 -2.372199509854835
H -4.167740554758901 2.9199460986255 -3.2732953887610163
H -4.207880633999926 3.4142469656452707 -1.8291379598419866
O 6.613189044375339 -0.5771528421921026 -7.122543792546873
H 6.590972565718186 -0.8574690356573123 -8.049849899858398
H 6.9672960238471315 -1.3476121533402274 -6.653542042811844
O -1.263220298449969 0.5033205205335141 9.161255067647934
H -0.5193099819288602 0.5079849438996535 9.782176190680584
H -1.6145207113004254 1.4050768352484988 9.210096782428936
O 3.948841610140291 8.322668742696475 7.396591090090906
H 3.769153248811007 8.314687945114631 6.444427366473608
H 4.90837884212236 8.445568862938968 7.452678568056752
O -0.18280543081354134 5.997088207857959 6.4217230308498365
H 0.6691637165563049 6.383634124812741 6.674108020331151
H -0.6487488670772911 6.724236725296522 5.982276000947905
O 2.6703761066250924 0.8835194855609858 -9.84973110890737
H 2.5387754833793696 1.7203067920167645 -9.379161627729701
H 3.4870105312683517 0.5268687497768871 -9.469112647121513
O -8.29895812029222 4.106256023336063 6.207296277105133
H -7.9468197745242035 4.175368394699168 5.307191048554419
H -7.510902342718834 4.139816783605274 6.770149464982185
O 7.577016215568482 7.111987847907624 -0.8162141897429227
H 8.177307455095605 6.975394316649867 -1.5645189350609825
H 6.910772440610199 6.4161495484015285 -0.9205704907975395
O 6.545147418128374 -6.708753259190915 6.0200835929058245
H 5.666050909084931 -6.707949708208963 5.612461170812223
H 7.1269093857842325 -6.371274463361558 5.322499892082225
O -5.569830457301473 7.148911138561504 -2.3589311901464804
H -5.079871056333872 7.964119507386281 -2.544248371491106
H -5.378697008453462 6.58246178235385 -3.1215353311550373
O -4.877684659218742 -10.782624656226158 -3.6832978028948835
H -5.447466312044817 -10.26816800252314 -3.0919852151179272
H -4.525854209100887 -11.48536502213043 -3.116435159216012
O 2.9433497942359774 9.01923118973657 -0.9039979082747966
H 2.8992881508913264 8.86655332155997 -1.859882523202152
H 2.9601630173915634 8.127547446172143 -0.525079234559647
O 1.7931271571341956 9.462387707552004 4.750593508916649
H 0.8371291525007826 9.530413989907515 4.893448669641846
H 2.0701394073690134 8.755893273807096 5.3531644778550005
C -1.1405890253131865 15.589675915290801 7.593488100440867
O -2.1585271482210633 15.67009852783928 8.218109936932086
O -0.12265090240530796 15.509253302742325 6.968866263949648
O 0.9439764567627646 -0.460697509582344 13.586107772416645
H 0.5197900097918362 -1.316593647202355 13.423396320105109
H 0.2044885270870589 0.16467026945136465 13.618274325082195
O 23.40426113847349 -0.6522947760184188 1.7329965100839457
H 23.953282615512936 0.006086615018979558 2.1847450226272462
H 23.94893941628462 -1.4537133381564527 1.736972216474988
O -10.295912246701645 -10.722426355825736 7.8173257704978925
H -10.340068855586482 -10.703744336586539 8.78514214406725
H -11.177963119872118 -10.435243204892645 7.537193588734807
O -1.1452002913656054 -17.03106896454922 -5.936565592501185
H -1.283072654647349 -16.158187965448278 -6.334104684606164
H -0.40778634497172783 -16.89492012573851 -5.322850585633745
O 3.7536685723090106 0.7627723622587935 13.756738060163276
H 3.4605237316782094 0.7551177578735447 12.833171675790583
H 4.583212365286592 1.2631127516352718 13.734862626659874
O -3.5703790533336983 12.343664344329754 -15.2623024296254
H -4.0363876647977 12.34906014534445 -14.412729468501517
H -4.248870147459734 12.604446984823207 -15.903086475860098
O -10.188480472949252 0.07367932989304249 -17.439819814397627
H -9.895455496385246 -0.40237425709474817 -18.231322626979946
H -9.364493104913139 0.3818539448462812 -17.033574607268555
O 2.077590657634599 -16.737587126326876 3.7190723392495006
H 1.6855795492411474 -17.15139783506742 4.50268917490822
H 2.958371288820925 -17.13710282366816 3.659284116287764
O 17.860686038568048 5.138678822861329 1.2858793374527862
H 17.244821430618114 4.43124753543353 1.529229116871062
H 17.35519597030548 5.686303167067078 0.6665657554758304
O 3.91814846870861 -15.621034757421887 -14.69833200858354
H 4.414411922742869 -16.45123290501752 -14.757162075885693
H 4.126460369033822 -15.164577745909481 -15.527316383058752
O 2.98506452194711 -14.27582076876801 13.173595408789094
H 2.778952693921794 -14.375123762348908 12.23198817288129
H 3.204874578456375 -13.336745359927267 13.267312322246493
O 6.136182061363755 -11.79206615926895 5.000611651441529
H 5.932639732205477 -12.313288556414228 5.791728008152068
H 6.222539265057197 -12.455127574238393 4.299288660481607
O -6.818617910599114 0.6488987429135302 -14.422240407117059
H -6.763562914514272 1.5349642182702503 -14.033879392483806
H -6.884012106212384 0.81447770098382 -15.37474717986172
O 11.655781010008047 -0.7986749772596486 10.540968589780837
H 11.583528694011894 -1.146670816484654 11.442437311154617
H 10.935592479028646 -1.2363393802766218 10.062700574461466
O 2.7859538454038875 -9.098141713084926 10.446463677079807
H 2.2795353382722623 -9.923892638090278 10.421105002284383
H 3.699489491156145 -9.378817343604853 10.286351970224098
O -0.08008151139451769 6.568268087062376 -1.378051560956692
H 0.8781566640114422 6.477942236594371 -1.4902486947520313
H -0.3280853695079812 5.793763428563297 -0.8511753282188121
O -2.7164255772697725 -0.7197041644167328 22.545937464404837
H -2.9505277331833497 -1.4396526952758357 23.150782610215266
H -2.0026507550820143 -1.0906572286924714 22.005677090496782
O -6.797874862499642 9.624589400452109 7.350186009651601
H -6.650683376354276 9.43091643970376 8.288158721184985
H -6.504740812786946 8.820214397933835 6.896297005022979
O -9.792423049226514 -7.3998343578524315 8.642046080142233
H -10.627137846309832 -6.950398044947778 8.842609200064183
H -9.985780950727621 -7.904732097619743 7.837898743763537
O -6.977952080354314 -1.6253937431663772 -9.849034035237445
H -7.466974552896386 -1.252157600441472 -9.100355759866327
H -7.564865121344434 -1.4822910160439768 -10.606672891227465