194

C -5.0710522388059704 1.0783507462686561 0.47044029850746183
C -3.8153522388059704 0.1782507462686569 0.19534029850746193
C -4.11845223880597 -1.3219492537313435 0.5608402985074619
C -2.96945223880597 -2.3874492537313436 0.7034402985074619
C -2.52015223880597 0.7359507462686565 0.7384402985074618
C -2.20305223880597 0.7852507462686571 2.097440298507462
C -1.5755522388059702 1.205650746268656 -0.18965970149253808
C -0.9533522388059701 1.2695507462686564 2.508640298507462
H -2.91125223880597 0.4298507462686567 2.840840298507462
C -0.32655223880597006 1.6562507462686575 0.21554029850746192
H -1.7850522388059702 1.178550746268657 -1.2573597014925382
C 0.004447761194029898 1.6956507462686563 1.569740298507462
H -0.7158522388059702 1.2676507462686573 3.5705402985074617
H 0.3943477611940298 1.9193507462686572 -0.5551597014925382
C -1.76045223880597 -2.1592492537313435 -0.1734597014925381
C -0.5287522388059701 -1.936549253731343 0.464840298507462
C -1.8068522388059702 -2.121249253731343 -1.5681597014925381
C 0.6114477611940299 -1.614449253731343 -0.2582597014925381
H -0.4544522388059702 -1.954049253731343 1.5506402985074619
C -0.6479522388059701 -1.8270492537313432 -2.2998597014925384
H -2.74345223880597 -2.290549253731343 -2.092259701492538
C 0.5698477611940298 -1.5506492537313434 -1.6506597014925382
H 1.5072477611940298 -1.351949253731343 0.2991402985074618
H -0.7173522388059701 -1.7640492537313435 -3.3840597014925375
C 1.7791477611940298 -1.082849253731343 -2.4255597014925376
H 1.4739477611940297 -0.9102492537313429 -3.464259701492538
H 2.1252477611940295 -0.1337492537313434 -2.0010597014925384
C 1.3965477611940298 2.0964507462686566 1.997440298507462
H 1.51704776119403 1.8448507462686567 3.057640298507462
H 2.1256477611940294 1.5207507462686571 1.4165402985074618
C 3.94864776119403 -1.4275492537313434 -3.522959701492538
H 4.81734776119403 -2.087049253731343 -3.615159701492538
H 3.4305477611940303 -1.3641492537313429 -4.484459701492538
H 4.26984776119403 -0.441449253731343 -3.176459701492538
C 2.60904776119403 -3.4296492537313434 -2.8992597014925376
H 1.9825477611940296 -3.869549253731343 -2.119359701492538
H 2.06294776119403 -3.373349253731343 -3.845759701492538
H 3.5215477611940305 -4.019849253731343 -3.0234597014925377
C 3.7281477611940304 -2.060049253731343 -1.156659701492538
H 3.9048477611940298 -1.032549253731343 -0.8295597014925382
H 3.12924776119403 -2.623249253731343 -0.4404597014925382
H 4.68244776119403 -2.5769492537313434 -1.3005597014925383
C 3.1110477611940297 3.755250746268656 2.588740298507462
H 3.40124776119403 4.809350746268656 2.534540298507462
H 2.9823477611940303 3.461750746268656 3.634840298507462
H 3.86514776119403 3.1392507462686563 2.091540298507462
C 1.99744776119403 3.9574507462686572 0.40494029850746194
H 2.67914776119403 3.230350746268657 -0.04295970149253803
H 1.03214776119403 3.981150746268657 -0.10175970149253821
H 2.4399477611940297 4.958250746268657 0.368240298507462
C 0.7418477611940297 4.4992507462686575 2.475440298507462
H -0.18475223880597014 4.424250746268656 1.901240298507462
H 0.57844776119403 4.189650746268656 3.511940298507462
H 1.1210477611940297 5.524350746268658 2.4432402985074617
N 3.00114776119403 -2.025349253731343 -2.490159701492538
N 1.7831477611940298 3.586450746268657 1.862540298507462
C -3.55075223880597 -3.8435492537313434 0.6444402985074619
H -2.62515223880597 -2.2736492537313433 1.7424402985074618
H -4.67195223880597 -1.3478492537313436 1.5102402985074619
H -4.83415223880597 -1.6757492537313432 -0.1945597014925382
H -3.7169522388059697 0.17335074626865676 -0.900559701492538
H -3.9132522388059705 -4.043149253731343 -0.34225970149253815
H -4.35435223880597 -3.9354492537313432 1.3449402985074619
H -2.78115223880597 -4.545049253731343 0.8904402985074619
H -5.24235223880597 1.138950746268657 1.5249402985074618
H -5.92805223880597 0.6501507462686567 -0.006059701492538094
H -4.89895223880597 2.059650746268657 0.08004029850746197
C 3.0445941167665946 -1.3276056653246622 2.4984339173228802
O 3.348220355662873 -2.4544311983161995 2.858782115392521
O 3.681843872237246 -0.6418630907744207 1.6907821763467332
O 2.053079954225576 -0.6986358517700884 2.885661271105782
O 4.20680059705942 1.112454435420027 -7.973508555356246
H 4.1862062032348755 0.9755733979668463 -7.014442963528064
H 4.696474640963673 0.346452623876611 -8.308803201508942
O 3.5590683068045568 -10.055547913540796 -1.7316390393581351
H 3.4739089644308483 -10.11635625778496 -0.7683023440242756
H 2.6430590036189474 -10.022615299091115 -2.045970621740373
O 0.7435374493263112 -10.694582328605478 0.07145414454921006
H 1.3052909101375278 -11.330742097455353 -0.3962008080210504
H 0.8845281202075794 -9.862952037805762 -0.40548886509537496
O 8.361044511074546 -4.649893124564441 -5.296978393128452
H 8.018988931231688 -4.547951364763519 -4.396104808874225
H 8.640961438705784 -3.7555997572390742 -5.543651924508181
O 0.9583136062715087 -4.931662403718908 0.01690515970856743
H 0.4485587189849083 -5.420854059173848 -0.6462756874369766
H 1.7371317318320783 -5.487446534559197 0.1702292331752724
O -0.5305658908480004 -6.489516848708874 2.675600067729996
H -0.5283007109418736 -6.2299580164021 3.609190683809409
H 0.37315412849312946 -6.801184377041137 2.517121606337525
O 2.355724870802861 -7.506431573569439 -6.245737494300554
H 2.013118230110891 -7.524703670838701 -5.33950674161383
H 2.9527239208227622 -6.743234514541779 -6.2549205039849465
O 5.121248143720518 6.1143401853930985 5.603486982618117
H 4.622993265766857 6.9427993899540805 5.53742050190688
H 5.70619055955273 6.252979769141701 6.363476048512086
O -10.374458351129814 3.079344360104948 2.742946782058876
H -10.282037788315867 3.3558860153875316 1.8188523554104283
H -9.461506538636135 2.9509063879891952 3.0412496812792797
O 0.2798322861119469 7.429735823780115 6.215766321524555
H 0.7708834882708495 7.226429155707753 7.026014723235791
H 0.9509419905750138 7.797622233736931 5.6214319894819065
O -7.029092896317469 3.786644667910351 -1.0174903917170566
H -6.269807246656227 4.346160498463501 -0.7952412196625233
H -6.629089359317195 2.985919964980889 -1.3887033559381305
O -7.867991391420126 -1.3784960905418842 -4.064678520647192
H -7.682728119829701 -1.4073285217688467 -3.113987420442107
H -7.192306434728337 -1.9547671296931024 -4.452394232265885
O -1.6800703682179159 7.7543763809492035 -3.01345460400369
H -1.8331122288712802 8.707519721266472 -2.9294110522189403
H -2.057639690666805 7.384199405473277 -2.2014371424469927
O -0.6219147456693812 6.062556918177634 -1.3797404875386043
H -0.8070144933300809 6.495206989568611 -0.5326753448008512
H 0.23135920271765276 5.625774414062024 -1.2379428944613684
O 0.13703893105894682 -7.513375501510072 6.039809079873878
H 0.5907945083522437 -6.657679401432716 6.069090768480106
H -0.8018889567524354 -7.282749420678389 6.104523658063598
O -3.7888525242343243 -10.049186074477507 -4.475007702798766
H -4.041916741474551 -9.551062066617515 -3.6833017399273924
H -4.24428214004676 -10.898358899299424 -4.37277599086502
O 3.3325912645680265 9.71153816802539 -4.887002492082652
H 3.388071852483716 9.727901275063846 -5.854277794151602
H 3.2907724087391013 10.64735573911838 -4.639094038756075
O 0.3164594743278834 5.853808882444094 -5.550272046086677
H -0.28485296105208335 6.134478468739882 -6.256399014333866
H 0.201748195927685 4.8923226336902745 -5.513564276267477
O -0.6971597794120017 -12.54344684142863 -0.9369103807384105
H -0.8456947472139769 -12.07707418882907 -0.10060824087069764
H -0.342409033984171 -11.860635483847261 -1.525877699760686
O -1.0749252416544317 -4.355233158506383 -8.45566740968516
H -1.0686231405252926 -4.435500448066736 -7.490014882816418
H -1.8827640461462718 -4.818357368482108 -8.723761379015984
C 11.118558972661765 4.327194421627933 8.640198771375267
O 11.307210712638728 4.270971648824844 7.459492297215836
O 10.9299072326848 4.383417194431024 9.8209052455347
O 0.2661499810729997 -12.418364946127143 4.097862174640974
H 0.1678540704749092 -12.378161202815111 3.1346960779144575
H -0.4119453316296886 -11.80992580434844 4.427938683866093
O -7.736496408035572 -17.51605101097552 0.19927817910447665
H -8.619440185570276 -17.59410970057987 0.59079380279017
H -7.666898847867216 -18.29146185393288 -0.3776586879293191
O -8.982833262182185 12.673188112549965 1.7618856748003546
H -8.520907048556019 12.446203346998864 2.5829029987787857
H -9.895907747756532 12.833811913500476 2.0437667182590387
O -8.803809712707842 -12.5356070492298 2.0983982620979402
H -9.09419064357429 -12.653483236426695 3.015323273416237
H -8.014037419521474 -11.979099506695649 2.172701857688895
O -7.551564743158739 -7.312347131194469 6.826737203533253
H -7.306029474528579 -7.629415524415772 5.944610555721967
H -8.353975397550998 -7.811935211275501 7.040069892680356
O 17.21734154767934 12.694901302810504 1.109087804954756
H 17.625945254932727 13.200941004996674 0.3908022161183089
H 16.806717798012407 11.940805929467054 0.6599884301929233
O -11.728346628532387 0.13913638397816896 -11.331404057351305
H -11.524284317419145 0.3970547262345061 -12.242888593046159
H -12.516477041770715 0.6584673550026552 -11.112069293659944
O 5.871834574600205 2.608033907891407 13.509627530535253
H 5.9019288453322645 2.5212034423875904 12.544991764025688
H 5.221330310864561 1.9443904691716962 13.784188149353797
O 5.042945743830952 11.785035022998173 11.658570490478729
H 4.827037087480942 11.511614223452419 12.562778362258717
H 5.669572904087826 11.11169312945882 11.353757366198874
O 17.019063974149653 2.9418567567781384 -0.38040121325330567
H 16.291091199910436 3.3200738297190266 0.13532627544831577
H 16.57557080975411 2.3849558614059276 -1.0377726076477227
O 4.648049474386642 -7.817589641499937 7.059000384668127
H 4.187061084245999 -6.993253706289932 6.842373223451004
H 4.379847492446046 -8.427585630914377 6.355484546835436
O 8.58919222187043 -12.018304743994875 -14.281792121656462
H 8.377868842648668 -12.961986062367078 -14.343236044460914
H 7.903491562369369 -11.589652031413786 -14.815677317046525
O 4.392031416033243 -0.9295337997238278 -21.04693560685401
H 4.246337271638904 -0.28332325285075477 -20.339720998478867
H 5.085461989092357 -1.508270184253206 -20.695965263564474
O -12.074694763842581 9.827294287397557 0.8359773714403866
H -12.206354827653028 9.649506502230771 -0.10743372025978992
H -11.295204670035208 9.300035110220895 1.0669641633553422
O 3.626624619049143 -16.280341160302633 0.919161063129701
H 3.4886536278074542 -16.19912001861906 1.874846413346708
H 3.8101099497129685 -15.373474409290349 0.6312586948872482
O 4.92760350840722 9.376220692541237 -8.399622253728962
H 5.189844396881425 9.500168783678538 -9.324194557021505
H 5.443619728051859 8.608554713825 -8.110869503983967
O 11.968325248191244 -11.31297041786295 -13.753658273154466
H 12.83588665467051 -10.881372458167895 -13.748389110528105
H 11.974091609862018 -11.859823293774435 -12.9537328857086
O -7.092453791762397 12.227010804183529 15.031430542568872
H -7.131592186737008 12.143737465767428 14.066805696295537
H -7.971679594542282 12.554267550102649 15.273973228041953
O 1.7870877755497756 -12.628884119844962 -8.034329757566548
H 1.3564225989480554 -11.897487776360748 -7.56683189521793
H 1.745353910446723 -13.36526051524977 -7.405863343910113
O -5.584959919768347 -17.425353649058057 -11.950042024325743
H -6.106947230166474 -16.67519970146348 -11.627915248674288
H -5.447597465988318 -17.970906096232188 -11.161076861613319