104

C -5.0710522388059704 1.0783507462686561 0.47044029850746183
C -3.8153522388059704 0.1782507462686569 0.19534029850746193
C -4.11845223880597 -1.3219492537313435 0.5608402985074619
C -2.96945223880597 -2.3874492537313436 0.7034402985074619
C -2.52015223880597 0.7359507462686565 0.7384402985074618
C -2.20305223880597 0.7852507462686571 2.097440298507462
C -1.5755522388059702 1.205650746268656 -0.18965970149253808
C -0.9533522388059701 1.2695507462686564 2.508640298507462
H -2.91125223880597 0.4298507462686567 2.840840298507462
C -0.32655223880597006 1.6562507462686575 0.21554029850746192
H -1.7850522388059702 1.178550746268657 -1.2573597014925382
C 0.004447761194029898 1.6956507462686563 1.569740298507462
H -0.7158522388059702 1.2676507462686573 3.5705402985074617
H 0.3943477611940298 1.9193507462686572 -0.5551597014925382
C -1.76045223880597 -2.1592492537313435 -0.1734597014925381
C -0.5287522388059701 -1.936549253731343 0.464840298507462
C -1.8068522388059702 -2.121249253731343 -1.5681597014925381
C 0.6114477611940299 -1.614449253731343 -0.2582597014925381
H -0.4544522388059702 -1.954049253731343 1.5506402985074619
C -0.6479522388059701 -1.8270492537313432 -2.2998597014925384
H -2.74345223880597 -2.290549253731343 -2.092259701492538
C 0.5698477611940298 -1.5506492537313434 -1.6506597014925382
H 1.5072477611940298 -1.351949253731343 0.2991402985074618
H -0.7173522388059701 -1.7640492537313435 -3.3840597014925375
C 1.7791477611940298 -1.082849253731343 -2.4255597014925376
H 1.4739477611940297 -0.9102492537313429 -3.464259701492538
H 2.1252477611940295 -0.1337492537313434 -2.0010597014925384
C 1.3965477611940298 2.0964507462686566 1.997440298507462
H 1.51704776119403 1.8448507462686567 3.057640298507462
H 2.1256477611940294 1.5207507462686571 1.4165402985074618
C 3.94864776119403 -1.4275492537313434 -3.522959701492538
H 4.81734776119403 -2.087049253731343 -3.615159701492538
H 3.4305477611940303 -1.3641492537313429 -4.484459701492538
H 4.26984776119403 -0.441449253731343 -3.176459701492538
C 2.60904776119403 -3.4296492537313434 -2.8992597014925376
H 1.9825477611940296 -3.869549253731343 -2.119359701492538
H 2.06294776119403 -3.373349253731343 -3.845759701492538
H 3.5215477611940305 -4.019849253731343 -3.0234597014925377
C 3.7281477611940304 -2.060049253731343 -1.156659701492538
H 3.9048477611940298 -1.032549253731343 -0.8295597014925382
H 3.12924776119403 -2.623249253731343 -0.4404597014925382
H 4.68244776119403 -2.5769492537313434 -1.3005597014925383
C 3.1110477611940297 3.755250746268656 2.588740298507462
H 3.40124776119403 4.809350746268656 2.534540298507462
H 2.9823477611940303 3.461750746268656 3.634840298507462
H 3.86514776119403 3.1392507462686563 2.091540298507462
C 1.99744776119403 3.9574507462686572 0.40494029850746194
H 2.67914776119403 3.230350746268657 -0.04295970149253803
H 1.03214776119403 3.981150746268657 -0.10175970149253821
H 2.4399477611940297 4.958250746268657 0.368240298507462
C 0.7418477611940297 4.4992507462686575 2.475440298507462
H -0.18475223880597014 4.424250746268656 1.901240298507462
H 0.57844776119403 4.189650746268656 3.511940298507462
H 1.1210477611940297 5.524350746268658 2.4432402985074617
N 3.00114776119403 -2.025349253731343 -2.490159701492538
N 1.7831477611940298 3.586450746268657 1.862540298507462
C -3.55075223880597 -3.8435492537313434 0.6444402985074619
H -2.62515223880597 -2.2736492537313433 1.7424402985074618
H -4.67195223880597 -1.3478492537313436 1.5102402985074619
H -4.83415223880597 -1.6757492537313432 -0.1945597014925382
H -3.7169522388059697 0.17335074626865676 -0.900559701492538
H -3.9132522388059705 -4.043149253731343 -0.34225970149253815
H -4.35435223880597 -3.9354492537313432 1.3449402985074619
H -2.78115223880597 -4.545049253731343 0.8904402985074619
H -5.24235223880597 1.138950746268657 1.5249402985074618
H -5.92805223880597 0.6501507462686567 -0.006059701492538094
H -4.89895223880597 2.059650746268657 0.08004029850746197
O -3.6613912430637425 2.631555281916355 -5.12018109424465
H -3.7390474673004346 2.85714280173483 -4.181007447553341
H -2.8526409181273786 2.0998747642650093 -5.167092535976099
O -5.6002019102783285 1.0840542051785917 13.781091938314349
H -5.700136604877522 1.3482804191998068 12.85418044224831
H -6.2083299463620385 1.6686215128947426 14.257981127517102
O 13.663794079107701 1.6526713712850176 14.124271748240366
H 13.382349701949606 1.6367195067624052 13.197178464107456
H 13.977548543131194 2.559656412786955 14.258055959181192
O -2.994860642383223 -13.648480380592822 -2.856198974119001
H -2.2555830498892044 -14.036352789928552 -3.3481247736176094
H -2.5784099128466824 -12.96885123615161 -2.3051681581072416
O -1.1673950350255844 -0.7783009959126561 -7.175403862358774
H -1.052872625123069 -0.6952439930126498 -8.134024490552946
H -1.8972318976524893 -0.1736678784019362 -6.9736146370265395
O -1.1746680780754886 -11.480591307813626 1.1747865333530996
H -1.0981474349226794 -11.464678528182475 2.140632655422186
H -1.7710284998438373 -10.743415768791237 0.9750656873822089
O 0.2755468143643174 10.560606864320373 0.24765386414535723
H 0.04854295849907231 10.82372536814162 1.1522008553344172
H 1.2368895888185003 10.674479569943092 0.2050507983062067
O -2.3237522519367104 12.538035212811566 2.9143557697680453
H -2.369920312991419 12.529557268704174 1.9464900809960124
H -3.1549848365776367 12.124574671989965 3.191961093410576
O 1.8953295611670324 -1.0034177621966665 -8.266537736479078
H 2.074461350756878 -1.148361172569658 -7.325330763147608
H 1.0611374791746102 -0.5104207980778799 -8.272823276297348
O -8.057050094251384 -5.28645043684065 -8.545378312654876
H -8.614503145107012 -5.990899374512253 -8.90864838739969
H -8.49838402563244 -5.041851540869856 -7.718119172239004
C 3.4247337798307917 7.146648603318904 3.457206086894521
O 2.7130962833190386 7.5754506925713425 4.318901566232337
O 4.136371276342545 6.717846514066466 2.5955106075567054
C 5.022786214950019 3.68115665314314 -6.515190500374936
O 4.4954621503546965 4.060750194088298 -7.549411740328644
O 5.781112261446559 4.3584874979565145 -5.8117731292720265
O 4.879704091756518 2.5609261020623535 -6.011941652539515