104

C -5.0710522388059704 1.0783507462686561 0.47044029850746183
C -3.8153522388059704 0.1782507462686569 0.19534029850746193
C -4.11845223880597 -1.3219492537313435 0.5608402985074619
C -2.96945223880597 -2.3874492537313436 0.7034402985074619
C -2.52015223880597 0.7359507462686565 0.7384402985074618
C -2.20305223880597 0.7852507462686571 2.097440298507462
C -1.5755522388059702 1.205650746268656 -0.18965970149253808
C -0.9533522388059701 1.2695507462686564 2.508640298507462
H -2.91125223880597 0.4298507462686567 2.840840298507462
C -0.32655223880597006 1.6562507462686575 0.21554029850746192
H -1.7850522388059702 1.178550746268657 -1.2573597014925382
C 0.004447761194029898 1.6956507462686563 1.569740298507462
H -0.7158522388059702 1.2676507462686573 3.5705402985074617
H 0.3943477611940298 1.9193507462686572 -0.5551597014925382
C -1.76045223880597 -2.1592492537313435 -0.1734597014925381
C -0.5287522388059701 -1.936549253731343 0.464840298507462
C -1.8068522388059702 -2.121249253731343 -1.5681597014925381
C 0.6114477611940299 -1.614449253731343 -0.2582597014925381
H -0.4544522388059702 -1.954049253731343 1.5506402985074619
C -0.6479522388059701 -1.8270492537313432 -2.2998597014925384
H -2.74345223880597 -2.290549253731343 -2.092259701492538
C 0.5698477611940298 -1.5506492537313434 -1.6506597014925382
H 1.5072477611940298 -1.351949253731343 0.2991402985074618
H -0.7173522388059701 -1.7640492537313435 -3.3840597014925375
C 1.7791477611940298 -1.082849253731343 -2.4255597014925376
H 1.4739477611940297 -0.9102492537313429 -3.464259701492538
H 2.1252477611940295 -0.1337492537313434 -2.0010597014925384
C 1.3965477611940298 2.0964507462686566 1.997440298507462
H 1.51704776119403 1.8448507462686567 3.057640298507462
H 2.1256477611940294 1.5207507462686571 1.4165402985074618
C 3.94864776119403 -1.4275492537313434 -3.522959701492538
H 4.81734776119403 -2.087049253731343 -3.615159701492538
H 3.4305477611940303 -1.3641492537313429 -4.484459701492538
H 4.26984776119403 -0.441449253731343 -3.176459701492538
C 2.60904776119403 -3.4296492537313434 -2.8992597014925376
H 1.9825477611940296 -3.869549253731343 -2.119359701492538
H 2.06294776119403 -3.373349253731343 -3.845759701492538
H 3.5215477611940305 -4.019849253731343 -3.0234597014925377
C 3.7281477611940304 -2.060049253731343 -1.156659701492538
H 3.9048477611940298 -1.032549253731343 -0.8295597014925382
H 3.12924776119403 -2.623249253731343 -0.4404597014925382
H 4.68244776119403 -2.5769492537313434 -1.3005597014925383
C 3.1110477611940297 3.755250746268656 2.588740298507462
H 3.40124776119403 4.809350746268656 2.534540298507462
H 2.9823477611940303 3.461750746268656 3.634840298507462
H 3.86514776119403 3.1392507462686563 2.091540298507462
C 1.99744776119403 3.9574507462686572 0.40494029850746194
H 2.67914776119403 3.230350746268657 -0.04295970149253803
H 1.03214776119403 3.981150746268657 -0.10175970149253821
H 2.4399477611940297 4.958250746268657 0.368240298507462
C 0.7418477611940297 4.4992507462686575 2.475440298507462
H -0.18475223880597014 4.424250746268656 1.901240298507462
H 0.57844776119403 4.189650746268656 3.511940298507462
H 1.1210477611940297 5.524350746268658 2.4432402985074617
N 3.00114776119403 -2.025349253731343 -2.490159701492538
N 1.7831477611940298 3.586450746268657 1.862540298507462
C -3.55075223880597 -3.8435492537313434 0.6444402985074619
H -2.62515223880597 -2.2736492537313433 1.7424402985074618
H -4.67195223880597 -1.3478492537313436 1.5102402985074619
H -4.83415223880597 -1.6757492537313432 -0.1945597014925382
H -3.7169522388059697 0.17335074626865676 -0.900559701492538
H -3.9132522388059705 -4.043149253731343 -0.34225970149253815
H -4.35435223880597 -3.9354492537313432 1.3449402985074619
H -2.78115223880597 -4.545049253731343 0.8904402985074619
H -5.24235223880597 1.138950746268657 1.5249402985074618
H -5.92805223880597 0.6501507462686567 -0.006059701492538094
H -4.89895223880597 2.059650746268657 0.08004029850746197
O 9.128435588438682 -3.943074595223024 9.846094570442252
H 9.705235587228936 -4.6787040815234695 10.101277597269874
H 9.357756925227484 -3.2383819246671552 10.4704197332046
O 2.2344200872461712 -3.5187909639364756 4.5755698223668535
H 1.7058559084152827 -3.610198646850736 5.382559228283112
H 2.2308833971926987 -4.408393981232718 4.191439756190193
O 2.80298776314478 5.69453002334246 5.562175242859944
H 1.8379610414655791 5.7814110502033085 5.550239141457065
H 2.9819095575943004 5.181635284152351 6.364601515038313
O 6.461959319839464 -4.1027696763124695 8.621865581148958
H 6.815221588174642 -4.157873329769191 7.721234294746799
H 5.552404259968312 -4.425908089653358 8.536700428731322
O 10.202260846787148 5.294827798847365 11.077270992184872
H 10.908066031643774 4.900240249057622 10.543316814862106
H 9.430405998882275 5.28152775044507 10.49158750532679
O 6.049768767816417 2.0240615069948142 10.085467018644959
H 6.743027030514697 2.6324909413788258 10.382408025371404
H 5.85201910559113 1.4929998513878644 10.871488986107567
O 5.4213753148566495 4.575790990183544 5.002934350678528
H 5.288115920435767 5.515279975603234 5.199326145246584
H 4.544829401911161 4.183197280121758 5.131384284966103
O -1.0469307304222462 -1.7561297726613263 -7.070843095829172
H -0.8459513608905902 -2.3470863719716832 -7.812021176761277
H -1.2659085614857064 -0.9134269703965316 -7.496122581412247
O -4.233957511707658 8.38906317390068 -4.981058595751537
H -4.418932365093995 8.636271324063514 -4.062559934343817
H -5.102820960949617 8.153423297776838 -5.339544438779828
O 7.407831852036084 -12.191176224397255 -8.19700159806951
H 7.893420972578285 -12.2490663295353 -7.360449568224289
H 6.837061099023905 -11.416430978376503 -8.083192566906975
C -4.106506883974483 0.2546408971802347 6.986580726394902
O -5.288835541208767 0.37785684149263776 6.84609928758614
O -2.9241782267402003 0.13142495286783168 7.127062165203663
C -3.906872715046034 3.1527223714216808 3.857140330605039
O -4.871368661588924 3.5575154879410325 3.2265330038787425
O -2.734390694039437 3.187747473730752 3.466383863320714
O -3.9540469834392975 2.645405011256862 4.983662442628128