104

C -5.0710522388059704 1.0783507462686561 0.47044029850746183
C -3.8153522388059704 0.1782507462686569 0.19534029850746193
C -4.11845223880597 -1.3219492537313435 0.5608402985074619
C -2.96945223880597 -2.3874492537313436 0.7034402985074619
C -2.52015223880597 0.7359507462686565 0.7384402985074618
C -2.20305223880597 0.7852507462686571 2.097440298507462
C -1.5755522388059702 1.205650746268656 -0.18965970149253808
C -0.9533522388059701 1.2695507462686564 2.508640298507462
H -2.91125223880597 0.4298507462686567 2.840840298507462
C -0.32655223880597006 1.6562507462686575 0.21554029850746192
H -1.7850522388059702 1.178550746268657 -1.2573597014925382
C 0.004447761194029898 1.6956507462686563 1.569740298507462
H -0.7158522388059702 1.2676507462686573 3.5705402985074617
H 0.3943477611940298 1.9193507462686572 -0.5551597014925382
C -1.76045223880597 -2.1592492537313435 -0.1734597014925381
C -0.5287522388059701 -1.936549253731343 0.464840298507462
C -1.8068522388059702 -2.121249253731343 -1.5681597014925381
C 0.6114477611940299 -1.614449253731343 -0.2582597014925381
H -0.4544522388059702 -1.954049253731343 1.5506402985074619
C -0.6479522388059701 -1.8270492537313432 -2.2998597014925384
H -2.74345223880597 -2.290549253731343 -2.092259701492538
C 0.5698477611940298 -1.5506492537313434 -1.6506597014925382
H 1.5072477611940298 -1.351949253731343 0.2991402985074618
H -0.7173522388059701 -1.7640492537313435 -3.3840597014925375
C 1.7791477611940298 -1.082849253731343 -2.4255597014925376
H 1.4739477611940297 -0.9102492537313429 -3.464259701492538
H 2.1252477611940295 -0.1337492537313434 -2.0010597014925384
C 1.3965477611940298 2.0964507462686566 1.997440298507462
H 1.51704776119403 1.8448507462686567 3.057640298507462
H 2.1256477611940294 1.5207507462686571 1.4165402985074618
C 3.94864776119403 -1.4275492537313434 -3.522959701492538
H 4.81734776119403 -2.087049253731343 -3.615159701492538
H 3.4305477611940303 -1.3641492537313429 -4.484459701492538
H 4.26984776119403 -0.441449253731343 -3.176459701492538
C 2.60904776119403 -3.4296492537313434 -2.8992597014925376
H 1.9825477611940296 -3.869549253731343 -2.119359701492538
H 2.06294776119403 -3.373349253731343 -3.845759701492538
H 3.5215477611940305 -4.019849253731343 -3.0234597014925377
C 3.7281477611940304 -2.060049253731343 -1.156659701492538
H 3.9048477611940298 -1.032549253731343 -0.8295597014925382
H 3.12924776119403 -2.623249253731343 -0.4404597014925382
H 4.68244776119403 -2.5769492537313434 -1.3005597014925383
C 3.1110477611940297 3.755250746268656 2.588740298507462
H 3.40124776119403 4.809350746268656 2.534540298507462
H 2.9823477611940303 3.461750746268656 3.634840298507462
H 3.86514776119403 3.1392507462686563 2.091540298507462
C 1.99744776119403 3.9574507462686572 0.40494029850746194
H 2.67914776119403 3.230350746268657 -0.04295970149253803
H 1.03214776119403 3.981150746268657 -0.10175970149253821
H 2.4399477611940297 4.958250746268657 0.368240298507462
C 0.7418477611940297 4.4992507462686575 2.475440298507462
H -0.18475223880597014 4.424250746268656 1.901240298507462
H 0.57844776119403 4.189650746268656 3.511940298507462
H 1.1210477611940297 5.524350746268658 2.4432402985074617
N 3.00114776119403 -2.025349253731343 -2.490159701492538
N 1.7831477611940298 3.586450746268657 1.862540298507462
C -3.55075223880597 -3.8435492537313434 0.6444402985074619
H -2.62515223880597 -2.2736492537313433 1.7424402985074618
H -4.67195223880597 -1.3478492537313436 1.5102402985074619
H -4.83415223880597 -1.6757492537313432 -0.1945597014925382
H -3.7169522388059697 0.17335074626865676 -0.900559701492538
H -3.9132522388059705 -4.043149253731343 -0.34225970149253815
H -4.35435223880597 -3.9354492537313432 1.3449402985074619
H -2.78115223880597 -4.545049253731343 0.8904402985074619
H -5.24235223880597 1.138950746268657 1.5249402985074618
H -5.92805223880597 0.6501507462686567 -0.006059701492538094
H -4.89895223880597 2.059650746268657 0.08004029850746197
O -3.979612180601372 -1.4004762059880091 4.593693406755464
H -4.914245264501516 -1.4549981101652905 4.843604825750657
H -3.724326503355261 -2.3224797256452208 4.439743164687751
O -2.8594381941467097 0.6844291234115625 -10.125548657071679
H -2.4085157101292487 0.6678384169470399 -10.983080591617869
H -3.172154275501117 1.5978760430099512 -10.043175592065225
O 3.8834991441610236 5.705592166788911 6.218195804973291
H 3.3492009397864897 5.042382127168786 5.75597807592212
H 4.094513016240276 5.286643398002008 7.066085549705505
O 2.898703452093992 5.448098503351072 -3.1575915426917853
H 2.7969587915584206 4.814025456202112 -2.4319423493264685
H 3.5672062682208936 5.043073596871875 -3.730322504192837
O 0.0052019884087949955 -4.304775357921951 -0.36251551927916514
H 0.42752310188923387 -4.103724740829092 0.48612508979821334
H -0.4921829800026306 -5.118194440169581 -0.189542879437514
O 0.8652365775269222 -0.07106940012803896 11.318243267715555
H -0.010564725686060594 0.01009698039567146 10.911608969035374
H 1.4700231154352172 0.26728012116477273 10.640958402015883
O -3.65346105192754 5.3127475026213835 4.202049494606563
H -2.8136993658479286 5.3438082446689315 3.719552968405406
H -3.9816295492385367 4.414961458880622 4.043154556559582
O 2.0741321607126952 8.492166664105739 -3.77444356570903
H 2.8308030349211286 8.295877540487016 -3.201829275830023
H 1.6211660569608484 7.640248805195699 -3.8639958678681796
O -4.933524978704531 -3.9228995324800104 8.07102592316006
H -5.018724735076212 -4.012705795290363 9.032089497318525
H -4.670762931744252 -4.807589543524588 7.775658972850469
O 1.626228023140188 11.251656742184334 -1.8145215623713569
H 1.1032346692632264 11.184458862057616 -2.627497425239993
H 2.459851272309145 10.809734712252531 -2.0352909945986104
C -3.1504514912525594 7.047496797113316 -5.713534144811071
O -3.255540919486919 6.8175171745510506 -4.543541049712005
O -3.0453620630182 7.277476419675581 -6.883527239910137
C -8.038949106545312 -7.142424946928902 -9.019966588232814
O -8.370359434121243 -7.69391909181187 -10.058136565421433
O -8.70383091498855 -6.28748183021235 -8.423614417045155
O -6.987385459060488 -7.353925091303126 -8.40504385437262