104

C -5.0710522388059704 1.0783507462686561 0.47044029850746183
C -3.8153522388059704 0.1782507462686569 0.19534029850746193
C -4.11845223880597 -1.3219492537313435 0.5608402985074619
C -2.96945223880597 -2.3874492537313436 0.7034402985074619
C -2.52015223880597 0.7359507462686565 0.7384402985074618
C -2.20305223880597 0.7852507462686571 2.097440298507462
C -1.5755522388059702 1.205650746268656 -0.18965970149253808
C -0.9533522388059701 1.2695507462686564 2.508640298507462
H -2.91125223880597 0.4298507462686567 2.840840298507462
C -0.32655223880597006 1.6562507462686575 0.21554029850746192
H -1.7850522388059702 1.178550746268657 -1.2573597014925382
C 0.004447761194029898 1.6956507462686563 1.569740298507462
H -0.7158522388059702 1.2676507462686573 3.5705402985074617
H 0.3943477611940298 1.9193507462686572 -0.5551597014925382
C -1.76045223880597 -2.1592492537313435 -0.1734597014925381
C -0.5287522388059701 -1.936549253731343 0.464840298507462
C -1.8068522388059702 -2.121249253731343 -1.5681597014925381
C 0.6114477611940299 -1.614449253731343 -0.2582597014925381
H -0.4544522388059702 -1.954049253731343 1.5506402985074619
C -0.6479522388059701 -1.8270492537313432 -2.2998597014925384
H -2.74345223880597 -2.290549253731343 -2.092259701492538
C 0.5698477611940298 -1.5506492537313434 -1.6506597014925382
H 1.5072477611940298 -1.351949253731343 0.2991402985074618
H -0.7173522388059701 -1.7640492537313435 -3.3840597014925375
C 1.7791477611940298 -1.082849253731343 -2.4255597014925376
H 1.4739477611940297 -0.9102492537313429 -3.464259701492538
H 2.1252477611940295 -0.1337492537313434 -2.0010597014925384
C 1.3965477611940298 2.0964507462686566 1.997440298507462
H 1.51704776119403 1.8448507462686567 3.057640298507462
H 2.1256477611940294 1.5207507462686571 1.4165402985074618
C 3.94864776119403 -1.4275492537313434 -3.522959701492538
H 4.81734776119403 -2.087049253731343 -3.615159701492538
H 3.4305477611940303 -1.3641492537313429 -4.484459701492538
H 4.26984776119403 -0.441449253731343 -3.176459701492538
C 2.60904776119403 -3.4296492537313434 -2.8992597014925376
H 1.9825477611940296 -3.869549253731343 -2.119359701492538
H 2.06294776119403 -3.373349253731343 -3.845759701492538
H 3.5215477611940305 -4.019849253731343 -3.0234597014925377
C 3.7281477611940304 -2.060049253731343 -1.156659701492538
H 3.9048477611940298 -1.032549253731343 -0.8295597014925382
H 3.12924776119403 -2.623249253731343 -0.4404597014925382
H 4.68244776119403 -2.5769492537313434 -1.3005597014925383
C 3.1110477611940297 3.755250746268656 2.588740298507462
H 3.40124776119403 4.809350746268656 2.534540298507462
H 2.9823477611940303 3.461750746268656 3.634840298507462
H 3.86514776119403 3.1392507462686563 2.091540298507462
C 1.99744776119403 3.9574507462686572 0.40494029850746194
H 2.67914776119403 3.230350746268657 -0.04295970149253803
H 1.03214776119403 3.981150746268657 -0.10175970149253821
H 2.4399477611940297 4.958250746268657 0.368240298507462
C 0.7418477611940297 4.4992507462686575 2.475440298507462
H -0.18475223880597014 4.424250746268656 1.901240298507462
H 0.57844776119403 4.189650746268656 3.511940298507462
H 1.1210477611940297 5.524350746268658 2.4432402985074617
N 3.00114776119403 -2.025349253731343 -2.490159701492538
N 1.7831477611940298 3.586450746268657 1.862540298507462
C -3.55075223880597 -3.8435492537313434 0.6444402985074619
H -2.62515223880597 -2.2736492537313433 1.7424402985074618
H -4.67195223880597 -1.3478492537313436 1.5102402985074619
H -4.83415223880597 -1.6757492537313432 -0.1945597014925382
H -3.7169522388059697 0.17335074626865676 -0.900559701492538
H -3.9132522388059705 -4.043149253731343 -0.34225970149253815
H -4.35435223880597 -3.9354492537313432 1.3449402985074619
H -2.78115223880597 -4.545049253731343 0.8904402985074619
H -5.24235223880597 1.138950746268657 1.5249402985074618
H -5.92805223880597 0.6501507462686567 -0.006059701492538094
H -4.89895223880597 2.059650746268657 0.08004029850746197
O 6.285334016694468 1.590188463712669 -6.82801320671175
H 5.76767516862674 1.3519643162600357 -6.04427477490707
H 5.726766032041159 2.232453242181058 -7.2911111500879775
O -9.139839988069156 0.40820291391657354 9.326103136342905
H -9.616449089468594 -0.11563267724594323 8.664735315236799
H -8.227605837033472 0.42332199863207187 8.999664457167826
O -6.072932350949421 1.489569450749686 -8.128759340771316
H -5.307590212096901 0.8970541840305316 -8.082451392194635
H -6.340547554296905 1.5989581207636478 -7.203892774119747
O 6.6213868226302415 2.106507722983734 7.3821704976943066
H 6.738001604847252 2.0884952228171936 8.343962522669681
H 7.365559260482516 2.6406320751785675 7.06613172881705
O -4.03986751531219 -7.05013802489448 -5.2203714163078585
H -3.533027198931999 -6.252590102743135 -5.005900993023665
H -4.0576807442994465 -7.546875229876589 -4.38856808476872
O -2.937849196123914 2.0714572177573944 -4.008525078756615
H -2.4807235811163704 1.956375642712913 -3.1619084240130073
H -2.798119732622187 3.005601705266421 -4.224885190112698
O -6.6493437435608636 -7.857579691473427 6.209825991127868
H -6.152463938813415 -7.046319165008161 6.025613682273556
H -6.5904018463219405 -7.954737049381965 7.172139996457785
O 11.084065696193374 -8.123729867144803 11.211690914515696
H 11.200406758605663 -8.262905080505837 12.163564001687874
H 11.561787574747957 -7.299273835200075 11.035577307885685
O 2.403340192842669 -15.09328053497308 2.6701334187885917
H 2.8270468156693607 -14.840807644486134 1.8360485944200104
H 2.479872334578225 -14.299843455536063 3.2210983691763877
O -7.033604059310893 -12.569753513932511 7.620850003386254
H -7.616913564714142 -12.872275069881754 8.333028412208275
H -7.630832642906747 -12.120436985310317 7.004088606780573
C 3.4077112884796557 1.9208893301239665 -12.195856387513567
O 2.4791501918378622 1.1796477937029501 -12.05041384976205
O 4.336272385121449 2.6621308665449828 -12.341298925265084
C 5.869266672327636 -2.35743642920501 11.185666483179563
O 5.255345269284631 -2.342833312925927 12.241442386712434
O 6.464299551200296 -3.336509444118896 10.7209263744866
O 5.990517324565201 -1.3953878357433789 10.418588151097069