104

C -5.0710522388059704 1.0783507462686561 0.47044029850746183
C -3.8153522388059704 0.1782507462686569 0.19534029850746193
C -4.11845223880597 -1.3219492537313435 0.5608402985074619
C -2.96945223880597 -2.3874492537313436 0.7034402985074619
C -2.52015223880597 0.7359507462686565 0.7384402985074618
C -2.20305223880597 0.7852507462686571 2.097440298507462
C -1.5755522388059702 1.205650746268656 -0.18965970149253808
C -0.9533522388059701 1.2695507462686564 2.508640298507462
H -2.91125223880597 0.4298507462686567 2.840840298507462
C -0.32655223880597006 1.6562507462686575 0.21554029850746192
H -1.7850522388059702 1.178550746268657 -1.2573597014925382
C 0.004447761194029898 1.6956507462686563 1.569740298507462
H -0.7158522388059702 1.2676507462686573 3.5705402985074617
H 0.3943477611940298 1.9193507462686572 -0.5551597014925382
C -1.76045223880597 -2.1592492537313435 -0.1734597014925381
C -0.5287522388059701 -1.936549253731343 0.464840298507462
C -1.8068522388059702 -2.121249253731343 -1.5681597014925381
C 0.6114477611940299 -1.614449253731343 -0.2582597014925381
H -0.4544522388059702 -1.954049253731343 1.5506402985074619
C -0.6479522388059701 -1.8270492537313432 -2.2998597014925384
H -2.74345223880597 -2.290549253731343 -2.092259701492538
C 0.5698477611940298 -1.5506492537313434 -1.6506597014925382
H 1.5072477611940298 -1.351949253731343 0.2991402985074618
H -0.7173522388059701 -1.7640492537313435 -3.3840597014925375
C 1.7791477611940298 -1.082849253731343 -2.4255597014925376
H 1.4739477611940297 -0.9102492537313429 -3.464259701492538
H 2.1252477611940295 -0.1337492537313434 -2.0010597014925384
C 1.3965477611940298 2.0964507462686566 1.997440298507462
H 1.51704776119403 1.8448507462686567 3.057640298507462
H 2.1256477611940294 1.5207507462686571 1.4165402985074618
C 3.94864776119403 -1.4275492537313434 -3.522959701492538
H 4.81734776119403 -2.087049253731343 -3.615159701492538
H 3.4305477611940303 -1.3641492537313429 -4.484459701492538
H 4.26984776119403 -0.441449253731343 -3.176459701492538
C 2.60904776119403 -3.4296492537313434 -2.8992597014925376
H 1.9825477611940296 -3.869549253731343 -2.119359701492538
H 2.06294776119403 -3.373349253731343 -3.845759701492538
H 3.5215477611940305 -4.019849253731343 -3.0234597014925377
C 3.7281477611940304 -2.060049253731343 -1.156659701492538
H 3.9048477611940298 -1.032549253731343 -0.8295597014925382
H 3.12924776119403 -2.623249253731343 -0.4404597014925382
H 4.68244776119403 -2.5769492537313434 -1.3005597014925383
C 3.1110477611940297 3.755250746268656 2.588740298507462
H 3.40124776119403 4.809350746268656 2.534540298507462
H 2.9823477611940303 3.461750746268656 3.634840298507462
H 3.86514776119403 3.1392507462686563 2.091540298507462
C 1.99744776119403 3.9574507462686572 0.40494029850746194
H 2.67914776119403 3.230350746268657 -0.04295970149253803
H 1.03214776119403 3.981150746268657 -0.10175970149253821
H 2.4399477611940297 4.958250746268657 0.368240298507462
C 0.7418477611940297 4.4992507462686575 2.475440298507462
H -0.18475223880597014 4.424250746268656 1.901240298507462
H 0.57844776119403 4.189650746268656 3.511940298507462
H 1.1210477611940297 5.524350746268658 2.4432402985074617
N 3.00114776119403 -2.025349253731343 -2.490159701492538
N 1.7831477611940298 3.586450746268657 1.862540298507462
C -3.55075223880597 -3.8435492537313434 0.6444402985074619
H -2.62515223880597 -2.2736492537313433 1.7424402985074618
H -4.67195223880597 -1.3478492537313436 1.5102402985074619
H -4.83415223880597 -1.6757492537313432 -0.1945597014925382
H -3.7169522388059697 0.17335074626865676 -0.900559701492538
H -3.9132522388059705 -4.043149253731343 -0.34225970149253815
H -4.35435223880597 -3.9354492537313432 1.3449402985074619
H -2.78115223880597 -4.545049253731343 0.8904402985074619
H -5.24235223880597 1.138950746268657 1.5249402985074618
H -5.92805223880597 0.6501507462686567 -0.006059701492538094
H -4.89895223880597 2.059650746268657 0.08004029850746197
O 6.3432831052130805 2.431112699040002 -6.312808594373011
H 5.759855508369926 2.910067695895409 -5.705205346250472
H 6.002129586859068 2.6564885846101 -7.191319796019394
O -1.4559656304005635 -7.372951816824662 2.203533823071903
H -1.8432669569215991 -8.17872094319498 2.577299999127818
H -0.525322871001674 -7.6037436757886505 2.063529835577382
O 8.481610349825338 -10.646063028998183 -8.782975640265052
H 9.409233187527581 -10.888225555215602 -8.92383208764762
H 8.109408379544464 -11.407993531419738 -8.314051822253349
O -3.1500888827101394 0.40185951387554975 12.595932182404125
H -4.004161450782911 0.843620620461012 12.715826010743907
H -3.0118621729235366 -0.07080061783651209 13.43046661602056
O -3.31737132201563 4.20669995165864 8.52811829309433
H -3.152076230129749 4.21508607316827 9.482882432798197
H -3.294542232535454 5.142691177735844 8.278396044025492
O 6.271520194769942 -3.000865683440291 -8.143096675809678
H 6.436190162493981 -2.3545666832721412 -8.846053830273174
H 7.155328563893325 -3.208679675904241 -7.804484721644355
O -3.550186598322388 -7.132283939565105 -3.98965033153973
H -3.8258015470589717 -6.26618581290377 -3.65367742797955
H -2.6231280695419907 -7.002099223490253 -4.239803021343447
O -0.7752132966775427 -0.38596959352523785 5.38686218080519
H -0.11498542702602943 -0.8248346236262024 5.9440551477294905
H -1.2697862649955112 -1.1181974236521894 4.989116120992237
O 9.419395268427952 9.639446140822235 9.775055623214284
H 9.020350646931602 10.450020827700476 9.424770847714292
H 10.351410739549054 9.872847156686436 9.900885157443998
O -1.728187833601677 0.25667609900127764 -12.30011277665213
H -1.7365925531436248 0.9381103351031277 -11.61124116346306
H -1.5766016318228604 -0.5669953913040024 -11.812722949318248
C 0.5525385086916687 9.598083920014611 -0.5747243084766548
O -0.26169337444194407 9.65323574177608 0.30094856100434186
O 1.366770391825281 9.542932098253143 -1.450397177957651
C -3.14790558266605 -5.266559551344355 4.036014989148377
O -3.4438369052952833 -4.799795022169149 2.9468267477544665
O -3.6929860494963975 -4.976845531267708 5.107268710425946
O -2.2575400345989416 -6.100874457692184 4.235554990804617