104

C -5.0710522388059704 1.0783507462686561 0.47044029850746183
C -3.8153522388059704 0.1782507462686569 0.19534029850746193
C -4.11845223880597 -1.3219492537313435 0.5608402985074619
C -2.96945223880597 -2.3874492537313436 0.7034402985074619
C -2.52015223880597 0.7359507462686565 0.7384402985074618
C -2.20305223880597 0.7852507462686571 2.097440298507462
C -1.5755522388059702 1.205650746268656 -0.18965970149253808
C -0.9533522388059701 1.2695507462686564 2.508640298507462
H -2.91125223880597 0.4298507462686567 2.840840298507462
C -0.32655223880597006 1.6562507462686575 0.21554029850746192
H -1.7850522388059702 1.178550746268657 -1.2573597014925382
C 0.004447761194029898 1.6956507462686563 1.569740298507462
H -0.7158522388059702 1.2676507462686573 3.5705402985074617
H 0.3943477611940298 1.9193507462686572 -0.5551597014925382
C -1.76045223880597 -2.1592492537313435 -0.1734597014925381
C -0.5287522388059701 -1.936549253731343 0.464840298507462
C -1.8068522388059702 -2.121249253731343 -1.5681597014925381
C 0.6114477611940299 -1.614449253731343 -0.2582597014925381
H -0.4544522388059702 -1.954049253731343 1.5506402985074619
C -0.6479522388059701 -1.8270492537313432 -2.2998597014925384
H -2.74345223880597 -2.290549253731343 -2.092259701492538
C 0.5698477611940298 -1.5506492537313434 -1.6506597014925382
H 1.5072477611940298 -1.351949253731343 0.2991402985074618
H -0.7173522388059701 -1.7640492537313435 -3.3840597014925375
C 1.7791477611940298 -1.082849253731343 -2.4255597014925376
H 1.4739477611940297 -0.9102492537313429 -3.464259701492538
H 2.1252477611940295 -0.1337492537313434 -2.0010597014925384
C 1.3965477611940298 2.0964507462686566 1.997440298507462
H 1.51704776119403 1.8448507462686567 3.057640298507462
H 2.1256477611940294 1.5207507462686571 1.4165402985074618
C 3.94864776119403 -1.4275492537313434 -3.522959701492538
H 4.81734776119403 -2.087049253731343 -3.615159701492538
H 3.4305477611940303 -1.3641492537313429 -4.484459701492538
H 4.26984776119403 -0.441449253731343 -3.176459701492538
C 2.60904776119403 -3.4296492537313434 -2.8992597014925376
H 1.9825477611940296 -3.869549253731343 -2.119359701492538
H 2.06294776119403 -3.373349253731343 -3.845759701492538
H 3.5215477611940305 -4.019849253731343 -3.0234597014925377
C 3.7281477611940304 -2.060049253731343 -1.156659701492538
H 3.9048477611940298 -1.032549253731343 -0.8295597014925382
H 3.12924776119403 -2.623249253731343 -0.4404597014925382
H 4.68244776119403 -2.5769492537313434 -1.3005597014925383
C 3.1110477611940297 3.755250746268656 2.588740298507462
H 3.40124776119403 4.809350746268656 2.534540298507462
H 2.9823477611940303 3.461750746268656 3.634840298507462
H 3.86514776119403 3.1392507462686563 2.091540298507462
C 1.99744776119403 3.9574507462686572 0.40494029850746194
H 2.67914776119403 3.230350746268657 -0.04295970149253803
H 1.03214776119403 3.981150746268657 -0.10175970149253821
H 2.4399477611940297 4.958250746268657 0.368240298507462
C 0.7418477611940297 4.4992507462686575 2.475440298507462
H -0.18475223880597014 4.424250746268656 1.901240298507462
H 0.57844776119403 4.189650746268656 3.511940298507462
H 1.1210477611940297 5.524350746268658 2.4432402985074617
N 3.00114776119403 -2.025349253731343 -2.490159701492538
N 1.7831477611940298 3.586450746268657 1.862540298507462
C -3.55075223880597 -3.8435492537313434 0.6444402985074619
H -2.62515223880597 -2.2736492537313433 1.7424402985074618
H -4.67195223880597 -1.3478492537313436 1.5102402985074619
H -4.83415223880597 -1.6757492537313432 -0.1945597014925382
H -3.7169522388059697 0.17335074626865676 -0.900559701492538
H -3.9132522388059705 -4.043149253731343 -0.34225970149253815
H -4.35435223880597 -3.9354492537313432 1.3449402985074619
H -2.78115223880597 -4.545049253731343 0.8904402985074619
H -5.24235223880597 1.138950746268657 1.5249402985074618
H -5.92805223880597 0.6501507462686567 -0.006059701492538094
H -4.89895223880597 2.059650746268657 0.08004029850746197
O 1.7086496960724333 0.09524428240748992 5.6139347660031405
H 1.2758244489075379 0.238834635019209 6.468926855413032
H 2.5971964659958786 0.46174060821381685 5.736926737810546
O -7.224207755176135 -8.022759421835431 7.809306783285788
H -7.294075093800152 -7.068638967612211 7.963384915175008
H -7.8538326161879555 -8.19076283968164 7.092153152403368
O 7.294783338741955 1.8182107905145501 -11.415838067260331
H 7.736398452295964 2.0914231600529565 -12.233944692042144
H 7.135187627180264 0.8706989043893463 -11.541187095188654
O 0.17931671919530773 12.67100811132764 -0.10937819448438545
H -0.7041765606589955 12.949132292757831 -0.39407789777905416
H 0.35300205557413994 13.211271787401698 0.6760583137974203
O 1.0521694381372633 -1.5368612724175987 -7.588585213338692
H 1.7954094277289383 -2.149176436501942 -7.69643610394295
H 0.4878834665357894 -1.7162971005327026 -8.355622415919132
O -3.0020339847403497 -11.901679002501997 -3.5273074538507005
H -2.2352605953812845 -12.217768552350078 -3.026195367838349
H -3.6473421887142132 -11.66610809413732 -2.8439000985228056
O 8.449262549223425 12.587370198451392 8.482957486384057
H 8.54102880414195 12.537067086677764 7.519621663161376
H 7.528812513338114 12.330921531814408 8.644102629403758
O -3.181011028496838 3.975680332331403 4.163128856178133
H -3.7303247244371565 3.321261440654119 3.706009906047794
H -3.560348798957981 4.826658665925654 3.8968570477666535
O -0.35991128263174255 -5.6955290709818245 -1.6434415224461425
H -0.5708380941977618 -5.805419925398815 -0.7040793786602126
H -0.5854653635751553 -4.77127611670119 -1.8274083057883845
O -7.93460799066425 -5.280640323781656 -9.903730694400751
H -7.898783551279129 -6.241896618924114 -9.786810629862034
H -8.852212179032309 -5.110625329045767 -10.16461265881062
C -1.4669846893156457 0.45517104261303215 -6.685578042167689
O -0.91927063975039 -0.5603092632307655 -6.366787631941446
O -2.0146987388809015 1.4706513484568293 -7.0043684523939325
C -1.3118549618945614 -9.679613689729292 1.5432187147894525
O -0.6684738290666051 -9.235026344275663 2.481396900841287
O -2.52170836468151 -9.501652014265268 1.360966554498061
O -0.8526485561865205 -10.376299486755903 0.6308554310158779