104

C -5.0710522388059704 1.0783507462686561 0.47044029850746183
C -3.8153522388059704 0.1782507462686569 0.19534029850746193
C -4.11845223880597 -1.3219492537313435 0.5608402985074619
C -2.96945223880597 -2.3874492537313436 0.7034402985074619
C -2.52015223880597 0.7359507462686565 0.7384402985074618
C -2.20305223880597 0.7852507462686571 2.097440298507462
C -1.5755522388059702 1.205650746268656 -0.18965970149253808
C -0.9533522388059701 1.2695507462686564 2.508640298507462
H -2.91125223880597 0.4298507462686567 2.840840298507462
C -0.32655223880597006 1.6562507462686575 0.21554029850746192
H -1.7850522388059702 1.178550746268657 -1.2573597014925382
C 0.004447761194029898 1.6956507462686563 1.569740298507462
H -0.7158522388059702 1.2676507462686573 3.5705402985074617
H 0.3943477611940298 1.9193507462686572 -0.5551597014925382
C -1.76045223880597 -2.1592492537313435 -0.1734597014925381
C -0.5287522388059701 -1.936549253731343 0.464840298507462
C -1.8068522388059702 -2.121249253731343 -1.5681597014925381
C 0.6114477611940299 -1.614449253731343 -0.2582597014925381
H -0.4544522388059702 -1.954049253731343 1.5506402985074619
C -0.6479522388059701 -1.8270492537313432 -2.2998597014925384
H -2.74345223880597 -2.290549253731343 -2.092259701492538
C 0.5698477611940298 -1.5506492537313434 -1.6506597014925382
H 1.5072477611940298 -1.351949253731343 0.2991402985074618
H -0.7173522388059701 -1.7640492537313435 -3.3840597014925375
C 1.7791477611940298 -1.082849253731343 -2.4255597014925376
H 1.4739477611940297 -0.9102492537313429 -3.464259701492538
H 2.1252477611940295 -0.1337492537313434 -2.0010597014925384
C 1.3965477611940298 2.0964507462686566 1.997440298507462
H 1.51704776119403 1.8448507462686567 3.057640298507462
H 2.1256477611940294 1.5207507462686571 1.4165402985074618
C 3.94864776119403 -1.4275492537313434 -3.522959701492538
H 4.81734776119403 -2.087049253731343 -3.615159701492538
H 3.4305477611940303 -1.3641492537313429 -4.484459701492538
H 4.26984776119403 -0.441449253731343 -3.176459701492538
C 2.60904776119403 -3.4296492537313434 -2.8992597014925376
H 1.9825477611940296 -3.869549253731343 -2.119359701492538
H 2.06294776119403 -3.373349253731343 -3.845759701492538
H 3.5215477611940305 -4.019849253731343 -3.0234597014925377
C 3.7281477611940304 -2.060049253731343 -1.156659701492538
H 3.9048477611940298 -1.032549253731343 -0.8295597014925382
H 3.12924776119403 -2.623249253731343 -0.4404597014925382
H 4.68244776119403 -2.5769492537313434 -1.3005597014925383
C 3.1110477611940297 3.755250746268656 2.588740298507462
H 3.40124776119403 4.809350746268656 2.534540298507462
H 2.9823477611940303 3.461750746268656 3.634840298507462
H 3.86514776119403 3.1392507462686563 2.091540298507462
C 1.99744776119403 3.9574507462686572 0.40494029850746194
H 2.67914776119403 3.230350746268657 -0.04295970149253803
H 1.03214776119403 3.981150746268657 -0.10175970149253821
H 2.4399477611940297 4.958250746268657 0.368240298507462
C 0.7418477611940297 4.4992507462686575 2.475440298507462
H -0.18475223880597014 4.424250746268656 1.901240298507462
H 0.57844776119403 4.189650746268656 3.511940298507462
H 1.1210477611940297 5.524350746268658 2.4432402985074617
N 3.00114776119403 -2.025349253731343 -2.490159701492538
N 1.7831477611940298 3.586450746268657 1.862540298507462
C -3.55075223880597 -3.8435492537313434 0.6444402985074619
H -2.62515223880597 -2.2736492537313433 1.7424402985074618
H -4.67195223880597 -1.3478492537313436 1.5102402985074619
H -4.83415223880597 -1.6757492537313432 -0.1945597014925382
H -3.7169522388059697 0.17335074626865676 -0.900559701492538
H -3.9132522388059705 -4.043149253731343 -0.34225970149253815
H -4.35435223880597 -3.9354492537313432 1.3449402985074619
H -2.78115223880597 -4.545049253731343 0.8904402985074619
H -5.24235223880597 1.138950746268657 1.5249402985074618
H -5.92805223880597 0.6501507462686567 -0.006059701492538094
H -4.89895223880597 2.059650746268657 0.08004029850746197
O 3.31825117916051 -3.4536630030455284 6.813695651816034
H 3.741858545753769 -3.575133141782622 5.9506955583843375
H 2.9892840342993723 -2.5426092799033597 6.786794435287726
O 1.2246668807351286 -2.593462393216573 -6.578381375845562
H 1.136021649033053 -1.9883738880538335 -5.826731669721487
H 1.9034581281992486 -3.223352209012824 -6.292998813970685
O 2.123625117193731 -1.4958106235819044 2.2162361359109974
H 2.967331213561874 -1.6629646367558213 2.662539749755972
H 1.7355836049633444 -2.3775105069837603 2.111397952527711
O 5.7827340107854885 1.8543732689743113 -5.745608732638918
H 5.376397981134002 1.385261871472157 -6.4897813501415
H 5.187397831325976 1.6746587696264168 -5.002480563040506
O -3.3802331912802566 1.4147829371113665 -4.349032220930591
H -3.3648005467926825 1.4381679149139432 -5.317630348740725
H -2.4868649868386545 1.1274579545052166 -4.1075792235104664
O -3.3224897026661053 2.6572341657022456 -9.099833948950684
H -4.23123131388541 2.7753862335569415 -8.78487977799846
H -2.8090266272630973 2.524862513180012 -8.288788105544642
O -3.985147906943389 7.899592079255443 -5.410926812390435
H -4.1116768403256625 8.116208232503626 -4.474959276591727
H -3.918076070244655 6.932962726402913 -5.4204665831296035
O 0.6046492210798173 -0.4908497981019503 8.348393875055221
H 0.596967163512003 -0.3902675033528986 7.3846555574219845
H 0.09289067325823092 0.2678085836325741 8.666988590729371
O -1.49875606274669 -5.434182465554791 -4.018911021795644
H -2.309396309072728 -5.302459150844548 -4.533185964115613
H -1.2455906223357505 -6.349505892059636 -4.211400577286235
O 1.754905469841638 1.2451371247603893 -5.317456206087385
H 0.8617033215059426 1.467664044162226 -5.620175629398854
H 2.130930967432761 0.7365758319697828 -6.05157621053931
C -4.26696445749201 -1.9756947173076842 7.2595742516015696
O -3.145431725113138 -1.566868194560663 7.171010930743777
O -5.388497189870883 -2.3845212400547053 7.348137572459361
C 5.679754349389882 3.269309571855884 12.083913077196716
O 5.780691761632411 3.354164634147811 10.869669791930862
O 6.456758982284266 2.6529379017033548 12.822141516634025
O 4.78497023458679 3.7866853760572456 12.76239082150602