104

C -5.0710522388059704 1.0783507462686561 0.47044029850746183
C -3.8153522388059704 0.1782507462686569 0.19534029850746193
C -4.11845223880597 -1.3219492537313435 0.5608402985074619
C -2.96945223880597 -2.3874492537313436 0.7034402985074619
C -2.52015223880597 0.7359507462686565 0.7384402985074618
C -2.20305223880597 0.7852507462686571 2.097440298507462
C -1.5755522388059702 1.205650746268656 -0.18965970149253808
C -0.9533522388059701 1.2695507462686564 2.508640298507462
H -2.91125223880597 0.4298507462686567 2.840840298507462
C -0.32655223880597006 1.6562507462686575 0.21554029850746192
H -1.7850522388059702 1.178550746268657 -1.2573597014925382
C 0.004447761194029898 1.6956507462686563 1.569740298507462
H -0.7158522388059702 1.2676507462686573 3.5705402985074617
H 0.3943477611940298 1.9193507462686572 -0.5551597014925382
C -1.76045223880597 -2.1592492537313435 -0.1734597014925381
C -0.5287522388059701 -1.936549253731343 0.464840298507462
C -1.8068522388059702 -2.121249253731343 -1.5681597014925381
C 0.6114477611940299 -1.614449253731343 -0.2582597014925381
H -0.4544522388059702 -1.954049253731343 1.5506402985074619
C -0.6479522388059701 -1.8270492537313432 -2.2998597014925384
H -2.74345223880597 -2.290549253731343 -2.092259701492538
C 0.5698477611940298 -1.5506492537313434 -1.6506597014925382
H 1.5072477611940298 -1.351949253731343 0.2991402985074618
H -0.7173522388059701 -1.7640492537313435 -3.3840597014925375
C 1.7791477611940298 -1.082849253731343 -2.4255597014925376
H 1.4739477611940297 -0.9102492537313429 -3.464259701492538
H 2.1252477611940295 -0.1337492537313434 -2.0010597014925384
C 1.3965477611940298 2.0964507462686566 1.997440298507462
H 1.51704776119403 1.8448507462686567 3.057640298507462
H 2.1256477611940294 1.5207507462686571 1.4165402985074618
C 3.94864776119403 -1.4275492537313434 -3.522959701492538
H 4.81734776119403 -2.087049253731343 -3.615159701492538
H 3.4305477611940303 -1.3641492537313429 -4.484459701492538
H 4.26984776119403 -0.441449253731343 -3.176459701492538
C 2.60904776119403 -3.4296492537313434 -2.8992597014925376
H 1.9825477611940296 -3.869549253731343 -2.119359701492538
H 2.06294776119403 -3.373349253731343 -3.845759701492538
H 3.5215477611940305 -4.019849253731343 -3.0234597014925377
C 3.7281477611940304 -2.060049253731343 -1.156659701492538
H 3.9048477611940298 -1.032549253731343 -0.8295597014925382
H 3.12924776119403 -2.623249253731343 -0.4404597014925382
H 4.68244776119403 -2.5769492537313434 -1.3005597014925383
C 3.1110477611940297 3.755250746268656 2.588740298507462
H 3.40124776119403 4.809350746268656 2.534540298507462
H 2.9823477611940303 3.461750746268656 3.634840298507462
H 3.86514776119403 3.1392507462686563 2.091540298507462
C 1.99744776119403 3.9574507462686572 0.40494029850746194
H 2.67914776119403 3.230350746268657 -0.04295970149253803
H 1.03214776119403 3.981150746268657 -0.10175970149253821
H 2.4399477611940297 4.958250746268657 0.368240298507462
C 0.7418477611940297 4.4992507462686575 2.475440298507462
H -0.18475223880597014 4.424250746268656 1.901240298507462
H 0.57844776119403 4.189650746268656 3.511940298507462
H 1.1210477611940297 5.524350746268658 2.4432402985074617
N 3.00114776119403 -2.025349253731343 -2.490159701492538
N 1.7831477611940298 3.586450746268657 1.862540298507462
C -3.55075223880597 -3.8435492537313434 0.6444402985074619
H -2.62515223880597 -2.2736492537313433 1.7424402985074618
H -4.67195223880597 -1.3478492537313436 1.5102402985074619
H -4.83415223880597 -1.6757492537313432 -0.1945597014925382
H -3.7169522388059697 0.17335074626865676 -0.900559701492538
H -3.9132522388059705 -4.043149253731343 -0.34225970149253815
H -4.35435223880597 -3.9354492537313432 1.3449402985074619
H -2.78115223880597 -4.545049253731343 0.8904402985074619
H -5.24235223880597 1.138950746268657 1.5249402985074618
H -5.92805223880597 0.6501507462686567 -0.006059701492538094
H -4.89895223880597 2.059650746268657 0.08004029850746197
O -4.429687820131992 4.408286018718067 -7.906465119767522
H -4.8078470163492595 3.530634779471826 -7.746180119016209
H -4.627434825179381 4.581582469211845 -8.839109964572362
O 2.9666270570355584 -0.8681076267708656 2.993703220904597
H 2.1662682215862956 -0.32454345290309866 2.939563768508465
H 3.689866912146346 -0.22451194751013684 2.952829538464091
O 4.514117249796396 0.0525151042854435 -7.325051462379415
H 4.297350825795014 0.2818919896403287 -6.408882308352416
H 5.4007430125848614 -0.3339786760125159 -7.266066219727006
O -4.951572141319312 -9.005466112950556 4.985190650800309
H -4.5895514959703005 -9.424997095807628 4.19026791011159
H -4.210995102875942 -9.009834689081545 5.610081449238751
O 2.950721137896811 0.28836575233908107 6.270880588676197
H 3.363702658201785 0.3463027223252666 5.396205261314431
H 2.662412974036498 -0.6346684746643476 6.332914150009373
O -9.118109099459403 -2.6223833940659205 9.414186513867444
H -9.899215160568101 -3.183316624382274 9.533327561899249
H -8.37297211618046 -3.2283430084967994 9.542816860709603
O -4.675066213128263 2.0763648341021588 -4.177328702158947
H -4.7739168245643855 1.721615644423674 -5.0736260445298615
H -3.9223771478212006 2.682609705999556 -4.24724487028398
O -2.9441478729905493 4.347039144494622 5.498501725670636
H -3.3540108778462923 3.479551332674302 5.634312514983618
H -2.094632766817334 4.279318643930827 5.9596957873051055
O -8.13584175118013 6.316475472500753 9.805645953721408
H -8.71683710930682 5.887204072043371 9.159783882157672
H -7.9120434990578605 7.163833302877062 9.392292601313363
O 0.29822865595569736 10.939350792404928 0.12369880417128344
H -0.5705625925335122 10.7191277375798 0.4920341535094244
H 0.12467198165419288 11.705865174088842 -0.4431307361467272
C 2.193879116231033 -7.416441274310006 3.6876084110219414
O 3.1669503684366482 -7.79941443542852 3.105129095257091
O 1.2208078640254185 -7.033468113191491 4.270087726786792
C 1.397111827048989 1.3142392935675513 -7.818275861728747
O 1.8470079479354875 0.2112689870156197 -7.548413893537566
O 1.7630378009902237 2.021024761223879 -8.76441747290806
O 0.5062650873543715 1.8943328687044536 -7.186982019797465