104

C -5.0710522388059704 1.0783507462686561 0.47044029850746183
C -3.8153522388059704 0.1782507462686569 0.19534029850746193
C -4.11845223880597 -1.3219492537313435 0.5608402985074619
C -2.96945223880597 -2.3874492537313436 0.7034402985074619
C -2.52015223880597 0.7359507462686565 0.7384402985074618
C -2.20305223880597 0.7852507462686571 2.097440298507462
C -1.5755522388059702 1.205650746268656 -0.18965970149253808
C -0.9533522388059701 1.2695507462686564 2.508640298507462
H -2.91125223880597 0.4298507462686567 2.840840298507462
C -0.32655223880597006 1.6562507462686575 0.21554029850746192
H -1.7850522388059702 1.178550746268657 -1.2573597014925382
C 0.004447761194029898 1.6956507462686563 1.569740298507462
H -0.7158522388059702 1.2676507462686573 3.5705402985074617
H 0.3943477611940298 1.9193507462686572 -0.5551597014925382
C -1.76045223880597 -2.1592492537313435 -0.1734597014925381
C -0.5287522388059701 -1.936549253731343 0.464840298507462
C -1.8068522388059702 -2.121249253731343 -1.5681597014925381
C 0.6114477611940299 -1.614449253731343 -0.2582597014925381
H -0.4544522388059702 -1.954049253731343 1.5506402985074619
C -0.6479522388059701 -1.8270492537313432 -2.2998597014925384
H -2.74345223880597 -2.290549253731343 -2.092259701492538
C 0.5698477611940298 -1.5506492537313434 -1.6506597014925382
H 1.5072477611940298 -1.351949253731343 0.2991402985074618
H -0.7173522388059701 -1.7640492537313435 -3.3840597014925375
C 1.7791477611940298 -1.082849253731343 -2.4255597014925376
H 1.4739477611940297 -0.9102492537313429 -3.464259701492538
H 2.1252477611940295 -0.1337492537313434 -2.0010597014925384
C 1.3965477611940298 2.0964507462686566 1.997440298507462
H 1.51704776119403 1.8448507462686567 3.057640298507462
H 2.1256477611940294 1.5207507462686571 1.4165402985074618
C 3.94864776119403 -1.4275492537313434 -3.522959701492538
H 4.81734776119403 -2.087049253731343 -3.615159701492538
H 3.4305477611940303 -1.3641492537313429 -4.484459701492538
H 4.26984776119403 -0.441449253731343 -3.176459701492538
C 2.60904776119403 -3.4296492537313434 -2.8992597014925376
H 1.9825477611940296 -3.869549253731343 -2.119359701492538
H 2.06294776119403 -3.373349253731343 -3.845759701492538
H 3.5215477611940305 -4.019849253731343 -3.0234597014925377
C 3.7281477611940304 -2.060049253731343 -1.156659701492538
H 3.9048477611940298 -1.032549253731343 -0.8295597014925382
H 3.12924776119403 -2.623249253731343 -0.4404597014925382
H 4.68244776119403 -2.5769492537313434 -1.3005597014925383
C 3.1110477611940297 3.755250746268656 2.588740298507462
H 3.40124776119403 4.809350746268656 2.534540298507462
H 2.9823477611940303 3.461750746268656 3.634840298507462
H 3.86514776119403 3.1392507462686563 2.091540298507462
C 1.99744776119403 3.9574507462686572 0.40494029850746194
H 2.67914776119403 3.230350746268657 -0.04295970149253803
H 1.03214776119403 3.981150746268657 -0.10175970149253821
H 2.4399477611940297 4.958250746268657 0.368240298507462
C 0.7418477611940297 4.4992507462686575 2.475440298507462
H -0.18475223880597014 4.424250746268656 1.901240298507462
H 0.57844776119403 4.189650746268656 3.511940298507462
H 1.1210477611940297 5.524350746268658 2.4432402985074617
N 3.00114776119403 -2.025349253731343 -2.490159701492538
N 1.7831477611940298 3.586450746268657 1.862540298507462
C -3.55075223880597 -3.8435492537313434 0.6444402985074619
H -2.62515223880597 -2.2736492537313433 1.7424402985074618
H -4.67195223880597 -1.3478492537313436 1.5102402985074619
H -4.83415223880597 -1.6757492537313432 -0.1945597014925382
H -3.7169522388059697 0.17335074626865676 -0.900559701492538
H -3.9132522388059705 -4.043149253731343 -0.34225970149253815
H -4.35435223880597 -3.9354492537313432 1.3449402985074619
H -2.78115223880597 -4.545049253731343 0.8904402985074619
H -5.24235223880597 1.138950746268657 1.5249402985074618
H -5.92805223880597 0.6501507462686567 -0.006059701492538094
H -4.89895223880597 2.059650746268657 0.08004029850746197
O 0.893338025250149 7.26002082660268 -1.4493471222966856
H 1.2806682146906898 8.013724497762741 -0.9793753600302672
H 1.658452945084191 6.717077995353716 -1.6917810014115988
O -8.329374634825893 3.400968717725865 -10.340529040135722
H -7.444089685542345 3.779729968340005 -10.44905475370277
H -8.191883884177088 2.6527941213666244 -9.740284913843166
O 1.5912748359119036 -3.059220160827861 2.062431620702006
H 2.453704947648663 -2.806594720440979 1.699992596673059
H 1.6906830012647969 -4.000840363515401 2.2684203457620122
O 3.1642581541532238 -2.688099466633983 5.653473930549819
H 3.9856244274427284 -2.7148881778437417 6.16690081624459
H 3.08618342298803 -1.7603008685858086 5.385041365250219
O -5.906785601950071 -0.25120128935574043 7.805283047253064
H -6.0962930547159235 0.6757098242032159 7.595783477308171
H -6.435033215102009 -0.42450853484747536 8.598933475438765
O 9.52039339189967 4.589867973713901 -12.875162622305767
H 9.632614133651355 4.216292925294204 -11.988136385253602
H 9.756288273922262 5.523527528884944 -12.767480757661083
O 3.6872642735874246 -4.701707616272097 -9.417520845610193
H 4.572331377674744 -4.961909543535932 -9.121010246793436
H 3.7336367030244486 -3.735401096440528 -9.47286749699137
O -4.538486888418607 -1.3810137435695824 5.078689184591972
H -5.443461269952653 -1.0822612937539022 4.903373185903317
H -4.344018105092494 -1.9822106973149087 4.344042290214135
O 13.313827308357805 6.097937331648036 13.673330057436827
H 13.281584206579806 6.2977949034207805 12.725709516137284
H 13.357292253397471 6.969312389696853 14.09496764003961
O 1.38639174969547 3.5098797296572624 -3.485715774680965
H 0.8528609493862922 4.1717834950132415 -3.9506842117054863
H 0.7595690515711105 2.795967007925817 -3.2949701976258283
C -6.9177354495362255 -0.7995455869733069 -6.953708434098626
O -7.270830537409666 -1.1040451619313485 -8.0561702815428
O -6.564640361662785 -0.4950460120152654 -5.851246586654453
C -3.3959491524295884 11.36224378503522 4.216593751047641
O -4.180609242312618 11.188475007510092 3.296871807250399
O -3.0436293487171637 12.463630220040955 4.654143909083719
O -2.8327729094438725 10.46358635299802 4.8521216604118145