104

C -5.0710522388059704 1.0783507462686561 0.47044029850746183
C -3.8153522388059704 0.1782507462686569 0.19534029850746193
C -4.11845223880597 -1.3219492537313435 0.5608402985074619
C -2.96945223880597 -2.3874492537313436 0.7034402985074619
C -2.52015223880597 0.7359507462686565 0.7384402985074618
C -2.20305223880597 0.7852507462686571 2.097440298507462
C -1.5755522388059702 1.205650746268656 -0.18965970149253808
C -0.9533522388059701 1.2695507462686564 2.508640298507462
H -2.91125223880597 0.4298507462686567 2.840840298507462
C -0.32655223880597006 1.6562507462686575 0.21554029850746192
H -1.7850522388059702 1.178550746268657 -1.2573597014925382
C 0.004447761194029898 1.6956507462686563 1.569740298507462
H -0.7158522388059702 1.2676507462686573 3.5705402985074617
H 0.3943477611940298 1.9193507462686572 -0.5551597014925382
C -1.76045223880597 -2.1592492537313435 -0.1734597014925381
C -0.5287522388059701 -1.936549253731343 0.464840298507462
C -1.8068522388059702 -2.121249253731343 -1.5681597014925381
C 0.6114477611940299 -1.614449253731343 -0.2582597014925381
H -0.4544522388059702 -1.954049253731343 1.5506402985074619
C -0.6479522388059701 -1.8270492537313432 -2.2998597014925384
H -2.74345223880597 -2.290549253731343 -2.092259701492538
C 0.5698477611940298 -1.5506492537313434 -1.6506597014925382
H 1.5072477611940298 -1.351949253731343 0.2991402985074618
H -0.7173522388059701 -1.7640492537313435 -3.3840597014925375
C 1.7791477611940298 -1.082849253731343 -2.4255597014925376
H 1.4739477611940297 -0.9102492537313429 -3.464259701492538
H 2.1252477611940295 -0.1337492537313434 -2.0010597014925384
C 1.3965477611940298 2.0964507462686566 1.997440298507462
H 1.51704776119403 1.8448507462686567 3.057640298507462
H 2.1256477611940294 1.5207507462686571 1.4165402985074618
C 3.94864776119403 -1.4275492537313434 -3.522959701492538
H 4.81734776119403 -2.087049253731343 -3.615159701492538
H 3.4305477611940303 -1.3641492537313429 -4.484459701492538
H 4.26984776119403 -0.441449253731343 -3.176459701492538
C 2.60904776119403 -3.4296492537313434 -2.8992597014925376
H 1.9825477611940296 -3.869549253731343 -2.119359701492538
H 2.06294776119403 -3.373349253731343 -3.845759701492538
H 3.5215477611940305 -4.019849253731343 -3.0234597014925377
C 3.7281477611940304 -2.060049253731343 -1.156659701492538
H 3.9048477611940298 -1.032549253731343 -0.8295597014925382
H 3.12924776119403 -2.623249253731343 -0.4404597014925382
H 4.68244776119403 -2.5769492537313434 -1.3005597014925383
C 3.1110477611940297 3.755250746268656 2.588740298507462
H 3.40124776119403 4.809350746268656 2.534540298507462
H 2.9823477611940303 3.461750746268656 3.634840298507462
H 3.86514776119403 3.1392507462686563 2.091540298507462
C 1.99744776119403 3.9574507462686572 0.40494029850746194
H 2.67914776119403 3.230350746268657 -0.04295970149253803
H 1.03214776119403 3.981150746268657 -0.10175970149253821
H 2.4399477611940297 4.958250746268657 0.368240298507462
C 0.7418477611940297 4.4992507462686575 2.475440298507462
H -0.18475223880597014 4.424250746268656 1.901240298507462
H 0.57844776119403 4.189650746268656 3.511940298507462
H 1.1210477611940297 5.524350746268658 2.4432402985074617
N 3.00114776119403 -2.025349253731343 -2.490159701492538
N 1.7831477611940298 3.586450746268657 1.862540298507462
C -3.55075223880597 -3.8435492537313434 0.6444402985074619
H -2.62515223880597 -2.2736492537313433 1.7424402985074618
H -4.67195223880597 -1.3478492537313436 1.5102402985074619
H -4.83415223880597 -1.6757492537313432 -0.1945597014925382
H -3.7169522388059697 0.17335074626865676 -0.900559701492538
H -3.9132522388059705 -4.043149253731343 -0.34225970149253815
H -4.35435223880597 -3.9354492537313432 1.3449402985074619
H -2.78115223880597 -4.545049253731343 0.8904402985074619
H -5.24235223880597 1.138950746268657 1.5249402985074618
H -5.92805223880597 0.6501507462686567 -0.006059701492538094
H -4.89895223880597 2.059650746268657 0.08004029850746197
O 6.198064752226192 6.121726287783646 8.9826337750838
H 6.273236722726872 6.155934971013315 8.017156536748924
H 7.115456456159857 6.050695894946212 9.286457883980784
O 2.1119148489978183 -6.940624238568369 -2.794257937965801
H 2.8824004342855547 -7.516875610245498 -2.679133325462469
H 2.4798925117210415 -6.045486271025432 -2.7464834353534986
O -2.0212153815838207 -0.7933710329498997 -8.924570546811633
H -2.9372965059033787 -0.5659998508585498 -9.143808034755184
H -1.741475391081354 -0.08552831060860133 -8.32484880930153
O -5.217879862459195 0.8933840447516413 -10.12058274599234
H -5.178577751378429 0.893120956462526 -9.15237686305775
H -4.396009926531979 0.45542116828189816 -10.388314461620773
O -2.6590695460263922 -0.41413799406637974 -12.738961185836356
H -1.7832897859758823 -0.019291652899040446 -12.612179737459089
H -2.543984716632055 -1.3341864521969176 -12.457486034117958
O 2.240671244171323 -4.476823300793722 2.7562860841884533
H 1.7462153600560566 -4.698527789846634 1.9529630762411032
H 2.777346161754079 -5.265587104074383 2.92597297163639
O -6.9553727234826885 4.828529515132386 10.3964927802247
H -7.021757534462721 5.171150498314007 11.300468042969651
H -7.3757306834638925 5.513491500339147 9.855116562976423
O -6.282888206862877 -2.928196265927303 7.74927706089701
H -6.4211573552459775 -3.623706912343711 8.409666294778699
H -5.383309414246706 -2.6139109871864705 7.925188128604615
O 1.701075489226881 -0.9192207522282323 3.1555671380211603
H 1.2735559989476113 -0.25846647244417464 3.7208973283333404
H 2.175223488284348 -1.4893672636446598 3.7793287710264907
O -4.400722603730219 -2.574863434040264 -4.510902111127341
H -3.547328580810434 -2.2828417528239715 -4.865033917443007
H -4.601427755068935 -1.9264080843433649 -3.819392858856936
C -12.419316606796967 8.367592450955863 12.43990015231354
O -11.533982772566004 8.976893794822749 12.966923995823402
O -13.30465044102793 7.7582911070889775 11.912876308803677
C -7.912554861331538 4.229069089341806 -7.929590057545015
O -6.98838133967933 4.7477366743466405 -7.322414023151191
O -8.149563792490346 4.382599167132022 -9.133287173045709
O -8.75382068430128 3.470382223683102 -7.434297780823468