104

C -5.0710522388059704 1.0783507462686561 0.47044029850746183
C -3.8153522388059704 0.1782507462686569 0.19534029850746193
C -4.11845223880597 -1.3219492537313435 0.5608402985074619
C -2.96945223880597 -2.3874492537313436 0.7034402985074619
C -2.52015223880597 0.7359507462686565 0.7384402985074618
C -2.20305223880597 0.7852507462686571 2.097440298507462
C -1.5755522388059702 1.205650746268656 -0.18965970149253808
C -0.9533522388059701 1.2695507462686564 2.508640298507462
H -2.91125223880597 0.4298507462686567 2.840840298507462
C -0.32655223880597006 1.6562507462686575 0.21554029850746192
H -1.7850522388059702 1.178550746268657 -1.2573597014925382
C 0.004447761194029898 1.6956507462686563 1.569740298507462
H -0.7158522388059702 1.2676507462686573 3.5705402985074617
H 0.3943477611940298 1.9193507462686572 -0.5551597014925382
C -1.76045223880597 -2.1592492537313435 -0.1734597014925381
C -0.5287522388059701 -1.936549253731343 0.464840298507462
C -1.8068522388059702 -2.121249253731343 -1.5681597014925381
C 0.6114477611940299 -1.614449253731343 -0.2582597014925381
H -0.4544522388059702 -1.954049253731343 1.5506402985074619
C -0.6479522388059701 -1.8270492537313432 -2.2998597014925384
H -2.74345223880597 -2.290549253731343 -2.092259701492538
C 0.5698477611940298 -1.5506492537313434 -1.6506597014925382
H 1.5072477611940298 -1.351949253731343 0.2991402985074618
H -0.7173522388059701 -1.7640492537313435 -3.3840597014925375
C 1.7791477611940298 -1.082849253731343 -2.4255597014925376
H 1.4739477611940297 -0.9102492537313429 -3.464259701492538
H 2.1252477611940295 -0.1337492537313434 -2.0010597014925384
C 1.3965477611940298 2.0964507462686566 1.997440298507462
H 1.51704776119403 1.8448507462686567 3.057640298507462
H 2.1256477611940294 1.5207507462686571 1.4165402985074618
C 3.94864776119403 -1.4275492537313434 -3.522959701492538
H 4.81734776119403 -2.087049253731343 -3.615159701492538
H 3.4305477611940303 -1.3641492537313429 -4.484459701492538
H 4.26984776119403 -0.441449253731343 -3.176459701492538
C 2.60904776119403 -3.4296492537313434 -2.8992597014925376
H 1.9825477611940296 -3.869549253731343 -2.119359701492538
H 2.06294776119403 -3.373349253731343 -3.845759701492538
H 3.5215477611940305 -4.019849253731343 -3.0234597014925377
C 3.7281477611940304 -2.060049253731343 -1.156659701492538
H 3.9048477611940298 -1.032549253731343 -0.8295597014925382
H 3.12924776119403 -2.623249253731343 -0.4404597014925382
H 4.68244776119403 -2.5769492537313434 -1.3005597014925383
C 3.1110477611940297 3.755250746268656 2.588740298507462
H 3.40124776119403 4.809350746268656 2.534540298507462
H 2.9823477611940303 3.461750746268656 3.634840298507462
H 3.86514776119403 3.1392507462686563 2.091540298507462
C 1.99744776119403 3.9574507462686572 0.40494029850746194
H 2.67914776119403 3.230350746268657 -0.04295970149253803
H 1.03214776119403 3.981150746268657 -0.10175970149253821
H 2.4399477611940297 4.958250746268657 0.368240298507462
C 0.7418477611940297 4.4992507462686575 2.475440298507462
H -0.18475223880597014 4.424250746268656 1.901240298507462
H 0.57844776119403 4.189650746268656 3.511940298507462
H 1.1210477611940297 5.524350746268658 2.4432402985074617
N 3.00114776119403 -2.025349253731343 -2.490159701492538
N 1.7831477611940298 3.586450746268657 1.862540298507462
C -3.55075223880597 -3.8435492537313434 0.6444402985074619
H -2.62515223880597 -2.2736492537313433 1.7424402985074618
H -4.67195223880597 -1.3478492537313436 1.5102402985074619
H -4.83415223880597 -1.6757492537313432 -0.1945597014925382
H -3.7169522388059697 0.17335074626865676 -0.900559701492538
H -3.9132522388059705 -4.043149253731343 -0.34225970149253815
H -4.35435223880597 -3.9354492537313432 1.3449402985074619
H -2.78115223880597 -4.545049253731343 0.8904402985074619
H -5.24235223880597 1.138950746268657 1.5249402985074618
H -5.92805223880597 0.6501507462686567 -0.006059701492538094
H -4.89895223880597 2.059650746268657 0.08004029850746197
O -5.292126638242539 -2.288192278894276 -5.271440714845002
H -5.601212052793864 -2.6153050396826245 -6.129596181611404
H -5.226414770988889 -3.086702312971416 -4.72644014578093
O 0.10072428327040492 0.118777187031219 7.6685603010764725
H -0.004561368479466005 -0.006727860088131872 8.623615677263203
H -0.7224172840962068 -0.2297973723986288 7.29453399064962
O -1.6161427274758093 4.180798365019336 -1.8750137938121645
H -1.2686540203360768 5.0851992013718235 -1.8583379875264532
H -1.378555384262494 3.8549819412788673 -2.7561255101488666
O 6.006068391126159 -6.922522796723352 -6.0703651775437235
H 6.56140473028827 -7.536215848490347 -6.5742994446053515
H 5.104586208244886 -7.13448142336868 -6.355611314832628
O 3.4503536088598463 3.192213377540418 8.262840345074038
H 2.640452985501535 2.977782781651949 8.74971595211421
H 3.8353563996655136 2.3272523354281045 8.05649793305017
O -12.028267445919639 5.359105841912656 -13.821630013666232
H -12.67730098545539 5.089215523023838 -13.154635233156078
H -12.268530969726404 6.275642787939729 -14.024596537988149
O 2.96022340487619 -2.475537014357194 3.457551130078467
H 2.9714308662279105 -2.9005568014019656 2.5868043641755047
H 2.6432016524440414 -1.5780664548014234 3.275876290005602
O -5.731773785479062 6.750971960943177 8.999294266724759
H -5.718556356239482 6.73540690905916 8.030506165216412
H -6.326289506992144 6.023635026017759 9.23697889867869
O -1.7287222377161533 1.6311156297334564 11.15920063092798
H -2.194573507102418 2.4801933479109817 11.191090758015427
H -1.8132158911719534 1.3523518070088516 10.235018020203425
O 5.702547750782415 8.063317429218822 8.322193350472865
H 6.228653817018748 8.041341541945283 9.135640843767836
H 5.771627184808512 7.161549373626877 7.974336555212867
C -11.070665279461293 0.489941579725374 11.988265758332084
O -11.753731784261246 1.0182597929593826 11.159339782815813
O -10.38759877466134 -0.03837663350863435 12.817191733848354
C 3.9926430409729026 -8.938573635483019 -4.122298436744101
O 3.637687496095899 -8.315117702235856 -5.110774414732427
O 3.772612487985853 -8.604773874897752 -2.9523429932824996
O 4.626820536101529 -9.999794363637742 -4.138967426129746