104

C -5.0710522388059704 1.0783507462686561 0.47044029850746183
C -3.8153522388059704 0.1782507462686569 0.19534029850746193
C -4.11845223880597 -1.3219492537313435 0.5608402985074619
C -2.96945223880597 -2.3874492537313436 0.7034402985074619
C -2.52015223880597 0.7359507462686565 0.7384402985074618
C -2.20305223880597 0.7852507462686571 2.097440298507462
C -1.5755522388059702 1.205650746268656 -0.18965970149253808
C -0.9533522388059701 1.2695507462686564 2.508640298507462
H -2.91125223880597 0.4298507462686567 2.840840298507462
C -0.32655223880597006 1.6562507462686575 0.21554029850746192
H -1.7850522388059702 1.178550746268657 -1.2573597014925382
C 0.004447761194029898 1.6956507462686563 1.569740298507462
H -0.7158522388059702 1.2676507462686573 3.5705402985074617
H 0.3943477611940298 1.9193507462686572 -0.5551597014925382
C -1.76045223880597 -2.1592492537313435 -0.1734597014925381
C -0.5287522388059701 -1.936549253731343 0.464840298507462
C -1.8068522388059702 -2.121249253731343 -1.5681597014925381
C 0.6114477611940299 -1.614449253731343 -0.2582597014925381
H -0.4544522388059702 -1.954049253731343 1.5506402985074619
C -0.6479522388059701 -1.8270492537313432 -2.2998597014925384
H -2.74345223880597 -2.290549253731343 -2.092259701492538
C 0.5698477611940298 -1.5506492537313434 -1.6506597014925382
H 1.5072477611940298 -1.351949253731343 0.2991402985074618
H -0.7173522388059701 -1.7640492537313435 -3.3840597014925375
C 1.7791477611940298 -1.082849253731343 -2.4255597014925376
H 1.4739477611940297 -0.9102492537313429 -3.464259701492538
H 2.1252477611940295 -0.1337492537313434 -2.0010597014925384
C 1.3965477611940298 2.0964507462686566 1.997440298507462
H 1.51704776119403 1.8448507462686567 3.057640298507462
H 2.1256477611940294 1.5207507462686571 1.4165402985074618
C 3.94864776119403 -1.4275492537313434 -3.522959701492538
H 4.81734776119403 -2.087049253731343 -3.615159701492538
H 3.4305477611940303 -1.3641492537313429 -4.484459701492538
H 4.26984776119403 -0.441449253731343 -3.176459701492538
C 2.60904776119403 -3.4296492537313434 -2.8992597014925376
H 1.9825477611940296 -3.869549253731343 -2.119359701492538
H 2.06294776119403 -3.373349253731343 -3.845759701492538
H 3.5215477611940305 -4.019849253731343 -3.0234597014925377
C 3.7281477611940304 -2.060049253731343 -1.156659701492538
H 3.9048477611940298 -1.032549253731343 -0.8295597014925382
H 3.12924776119403 -2.623249253731343 -0.4404597014925382
H 4.68244776119403 -2.5769492537313434 -1.3005597014925383
C 3.1110477611940297 3.755250746268656 2.588740298507462
H 3.40124776119403 4.809350746268656 2.534540298507462
H 2.9823477611940303 3.461750746268656 3.634840298507462
H 3.86514776119403 3.1392507462686563 2.091540298507462
C 1.99744776119403 3.9574507462686572 0.40494029850746194
H 2.67914776119403 3.230350746268657 -0.04295970149253803
H 1.03214776119403 3.981150746268657 -0.10175970149253821
H 2.4399477611940297 4.958250746268657 0.368240298507462
C 0.7418477611940297 4.4992507462686575 2.475440298507462
H -0.18475223880597014 4.424250746268656 1.901240298507462
H 0.57844776119403 4.189650746268656 3.511940298507462
H 1.1210477611940297 5.524350746268658 2.4432402985074617
N 3.00114776119403 -2.025349253731343 -2.490159701492538
N 1.7831477611940298 3.586450746268657 1.862540298507462
C -3.55075223880597 -3.8435492537313434 0.6444402985074619
H -2.62515223880597 -2.2736492537313433 1.7424402985074618
H -4.67195223880597 -1.3478492537313436 1.5102402985074619
H -4.83415223880597 -1.6757492537313432 -0.1945597014925382
H -3.7169522388059697 0.17335074626865676 -0.900559701492538
H -3.9132522388059705 -4.043149253731343 -0.34225970149253815
H -4.35435223880597 -3.9354492537313432 1.3449402985074619
H -2.78115223880597 -4.545049253731343 0.8904402985074619
H -5.24235223880597 1.138950746268657 1.5249402985074618
H -5.92805223880597 0.6501507462686567 -0.006059701492538094
H -4.89895223880597 2.059650746268657 0.08004029850746197
O 3.7360799573236183 -1.4213329097796574 13.785222448212632
H 3.5597277434987116 -1.444538388301101 12.832684386324477
H 3.721044858208932 -2.3536689712772585 14.048823204140518
O 10.9086761463893 -4.810659605055902 10.615917246907864
H 10.602841076041699 -4.797430780530155 11.535295985430322
H 10.906914708169005 -5.75104327119472 10.382170798603918
O 5.295330284296445 -3.709625437373022 -5.433081944588962
H 4.611709097564159 -4.395946415825322 -5.408731493114302
H 6.0646736927602145 -4.1589971821711496 -5.814051364792782
O 9.12947878509684 -3.1044380177732367 -9.110160587867544
H 9.715277596569498 -3.4420210602776757 -9.804311002972705
H 8.546048638770824 -2.4868362224176117 -9.576142595064722
O 3.461097584845498 1.7379827920802873 -10.24186283668414
H 3.2493312038425834 2.478629219799272 -10.829710798221846
H 2.941645345172324 1.0011953999904888 -10.597215694919495
O -9.118462019096357 -9.112147628062989 -9.353429851708288
H -8.501696492665953 -8.40879769310229 -9.100711606823182
H -9.846513174928436 -8.64088349543641 -9.785649212787005
O 1.9894848232352291 -1.0947413750191692 4.904596976997018
H 1.715200274539035 -0.18303362707589865 5.084941995189194
H 2.411873996488616 -1.0442146476404628 4.0339671013100435
O -2.5291937802393605 -1.680752386458674 6.771579279189503
H -2.558957299277048 -1.6479536641877806 7.739569844046357
H -3.401532880180924 -1.3583013497386138 6.499528239986745
O 0.02151251292581144 6.383757457593717 -0.2467844229591114
H 0.4439077925346598 6.958646055649986 -0.9025684457052149
H -0.017362889848093893 6.92983868905622 0.5527441481398596
O -5.911785077871659 -2.1169367062254567 10.580013923842753
H -6.040982399256839 -2.203551660713466 9.623576127273664
H -6.8004173092333735 -2.235107934945606 10.94788654090995
C 2.40866983849614 0.6094179666008275 -6.786163812869073
O 3.354156425597555 0.9697647758516978 -7.425713301160663
O 1.4631832513947245 0.24907115734995722 -6.146614324577483
C -3.23774620041935 11.515707240572139 -3.198674176886443
O -4.310679153355269 10.933054214931365 -3.1654201723777935
O -2.4777592630083776 11.664845362645329 -2.23492673091879
O -2.7459008794235977 12.046376575602961 -4.201234210736052