104

C -5.0710522388059704 1.0783507462686561 0.47044029850746183
C -3.8153522388059704 0.1782507462686569 0.19534029850746193
C -4.11845223880597 -1.3219492537313435 0.5608402985074619
C -2.96945223880597 -2.3874492537313436 0.7034402985074619
C -2.52015223880597 0.7359507462686565 0.7384402985074618
C -2.20305223880597 0.7852507462686571 2.097440298507462
C -1.5755522388059702 1.205650746268656 -0.18965970149253808
C -0.9533522388059701 1.2695507462686564 2.508640298507462
H -2.91125223880597 0.4298507462686567 2.840840298507462
C -0.32655223880597006 1.6562507462686575 0.21554029850746192
H -1.7850522388059702 1.178550746268657 -1.2573597014925382
C 0.004447761194029898 1.6956507462686563 1.569740298507462
H -0.7158522388059702 1.2676507462686573 3.5705402985074617
H 0.3943477611940298 1.9193507462686572 -0.5551597014925382
C -1.76045223880597 -2.1592492537313435 -0.1734597014925381
C -0.5287522388059701 -1.936549253731343 0.464840298507462
C -1.8068522388059702 -2.121249253731343 -1.5681597014925381
C 0.6114477611940299 -1.614449253731343 -0.2582597014925381
H -0.4544522388059702 -1.954049253731343 1.5506402985074619
C -0.6479522388059701 -1.8270492537313432 -2.2998597014925384
H -2.74345223880597 -2.290549253731343 -2.092259701492538
C 0.5698477611940298 -1.5506492537313434 -1.6506597014925382
H 1.5072477611940298 -1.351949253731343 0.2991402985074618
H -0.7173522388059701 -1.7640492537313435 -3.3840597014925375
C 1.7791477611940298 -1.082849253731343 -2.4255597014925376
H 1.4739477611940297 -0.9102492537313429 -3.464259701492538
H 2.1252477611940295 -0.1337492537313434 -2.0010597014925384
C 1.3965477611940298 2.0964507462686566 1.997440298507462
H 1.51704776119403 1.8448507462686567 3.057640298507462
H 2.1256477611940294 1.5207507462686571 1.4165402985074618
C 3.94864776119403 -1.4275492537313434 -3.522959701492538
H 4.81734776119403 -2.087049253731343 -3.615159701492538
H 3.4305477611940303 -1.3641492537313429 -4.484459701492538
H 4.26984776119403 -0.441449253731343 -3.176459701492538
C 2.60904776119403 -3.4296492537313434 -2.8992597014925376
H 1.9825477611940296 -3.869549253731343 -2.119359701492538
H 2.06294776119403 -3.373349253731343 -3.845759701492538
H 3.5215477611940305 -4.019849253731343 -3.0234597014925377
C 3.7281477611940304 -2.060049253731343 -1.156659701492538
H 3.9048477611940298 -1.032549253731343 -0.8295597014925382
H 3.12924776119403 -2.623249253731343 -0.4404597014925382
H 4.68244776119403 -2.5769492537313434 -1.3005597014925383
C 3.1110477611940297 3.755250746268656 2.588740298507462
H 3.40124776119403 4.809350746268656 2.534540298507462
H 2.9823477611940303 3.461750746268656 3.634840298507462
H 3.86514776119403 3.1392507462686563 2.091540298507462
C 1.99744776119403 3.9574507462686572 0.40494029850746194
H 2.67914776119403 3.230350746268657 -0.04295970149253803
H 1.03214776119403 3.981150746268657 -0.10175970149253821
H 2.4399477611940297 4.958250746268657 0.368240298507462
C 0.7418477611940297 4.4992507462686575 2.475440298507462
H -0.18475223880597014 4.424250746268656 1.901240298507462
H 0.57844776119403 4.189650746268656 3.511940298507462
H 1.1210477611940297 5.524350746268658 2.4432402985074617
N 3.00114776119403 -2.025349253731343 -2.490159701492538
N 1.7831477611940298 3.586450746268657 1.862540298507462
C -3.55075223880597 -3.8435492537313434 0.6444402985074619
H -2.62515223880597 -2.2736492537313433 1.7424402985074618
H -4.67195223880597 -1.3478492537313436 1.5102402985074619
H -4.83415223880597 -1.6757492537313432 -0.1945597014925382
H -3.7169522388059697 0.17335074626865676 -0.900559701492538
H -3.9132522388059705 -4.043149253731343 -0.34225970149253815
H -4.35435223880597 -3.9354492537313432 1.3449402985074619
H -2.78115223880597 -4.545049253731343 0.8904402985074619
H -5.24235223880597 1.138950746268657 1.5249402985074618
H -5.92805223880597 0.6501507462686567 -0.006059701492538094
H -4.89895223880597 2.059650746268657 0.08004029850746197
O -0.7082880779840421 0.33206668642947623 -10.419684679400849
H -0.39872389369097144 -0.5398659444554443 -10.707557672057451
H -1.1796226660526554 0.6797146815244803 -11.191660405636211
O -0.015466382953017874 9.546083105934944 0.06600793502153046
H -0.23484223240412894 8.994909202628486 -0.7001832434003613
H 0.1288295497933728 8.907305382035966 0.7802233419845067
O -2.575705537376318 8.379009673714865 -3.2273458102037305
H -2.411321453230662 8.88258038003696 -4.038740765520723
H -3.4449380970976096 8.688797739181915 -2.9316634537558794
O 5.48311867226834 -7.480195298552177 7.399971681582845
H 5.208102384073285 -6.829992155256919 6.7362177583730585
H 5.584874290872473 -8.301135289523755 6.89532797597851
O 12.547983907781369 -0.22096153007377028 13.194993165272832
H 12.685798740904955 -0.17746484623597558 12.23682696509343
H 13.398401093182436 0.05763220681910018 13.56666248716878
O 14.133291702079264 0.4345005553295014 -15.025418350085051
H 13.432230067221022 1.0612726615512205 -14.791673472296724
H 13.662865341859401 -0.4007259081373315 -15.167043696103974
O -3.2725083787456373 1.286650133745452 10.15729184282086
H -4.186617297564817 1.0072406091987698 9.998224061583336
H -3.336458196058552 2.2478216546714975 10.262275996512532
O -3.444122398461824 -1.761662763787151 5.3171383692390295
H -3.8041783983935975 -2.180850300331061 4.521142864842567
H -2.5814388146426177 -2.1867308975409614 5.435696625703531
O 4.89540925149044 -4.009093227361625 5.515168449198332
H 4.979595304602744 -3.70991275299802 6.4329762227113605
H 5.573790058270715 -3.5047734088042977 5.04143545910534
O 0.4321086618814064 -8.226884394481534 0.3209302354152684
H 0.25579962957920804 -7.621235220024547 -0.4146454299708511
H -0.16183410501889142 -7.921536598946171 1.0230389575577237
C 3.012339093331423 5.182273538132708 -7.035620468035393
O 3.357656145294805 4.46479486632112 -7.929375885595924
O 2.6670220413680408 5.899752209944295 -6.141865050474863
C 8.848213138392458 1.1365400338002845 -9.924256973750008
O 9.486059169396313 0.13736577769981895 -10.218499637683555
O 8.057459404999978 1.7229849548311331 -10.672202394100301
O 8.894772063839987 1.7158719573396528 -8.832993864674407