104

C -5.0710522388059704 1.0783507462686561 0.47044029850746183
C -3.8153522388059704 0.1782507462686569 0.19534029850746193
C -4.11845223880597 -1.3219492537313435 0.5608402985074619
C -2.96945223880597 -2.3874492537313436 0.7034402985074619
C -2.52015223880597 0.7359507462686565 0.7384402985074618
C -2.20305223880597 0.7852507462686571 2.097440298507462
C -1.5755522388059702 1.205650746268656 -0.18965970149253808
C -0.9533522388059701 1.2695507462686564 2.508640298507462
H -2.91125223880597 0.4298507462686567 2.840840298507462
C -0.32655223880597006 1.6562507462686575 0.21554029850746192
H -1.7850522388059702 1.178550746268657 -1.2573597014925382
C 0.004447761194029898 1.6956507462686563 1.569740298507462
H -0.7158522388059702 1.2676507462686573 3.5705402985074617
H 0.3943477611940298 1.9193507462686572 -0.5551597014925382
C -1.76045223880597 -2.1592492537313435 -0.1734597014925381
C -0.5287522388059701 -1.936549253731343 0.464840298507462
C -1.8068522388059702 -2.121249253731343 -1.5681597014925381
C 0.6114477611940299 -1.614449253731343 -0.2582597014925381
H -0.4544522388059702 -1.954049253731343 1.5506402985074619
C -0.6479522388059701 -1.8270492537313432 -2.2998597014925384
H -2.74345223880597 -2.290549253731343 -2.092259701492538
C 0.5698477611940298 -1.5506492537313434 -1.6506597014925382
H 1.5072477611940298 -1.351949253731343 0.2991402985074618
H -0.7173522388059701 -1.7640492537313435 -3.3840597014925375
C 1.7791477611940298 -1.082849253731343 -2.4255597014925376
H 1.4739477611940297 -0.9102492537313429 -3.464259701492538
H 2.1252477611940295 -0.1337492537313434 -2.0010597014925384
C 1.3965477611940298 2.0964507462686566 1.997440298507462
H 1.51704776119403 1.8448507462686567 3.057640298507462
H 2.1256477611940294 1.5207507462686571 1.4165402985074618
C 3.94864776119403 -1.4275492537313434 -3.522959701492538
H 4.81734776119403 -2.087049253731343 -3.615159701492538
H 3.4305477611940303 -1.3641492537313429 -4.484459701492538
H 4.26984776119403 -0.441449253731343 -3.176459701492538
C 2.60904776119403 -3.4296492537313434 -2.8992597014925376
H 1.9825477611940296 -3.869549253731343 -2.119359701492538
H 2.06294776119403 -3.373349253731343 -3.845759701492538
H 3.5215477611940305 -4.019849253731343 -3.0234597014925377
C 3.7281477611940304 -2.060049253731343 -1.156659701492538
H 3.9048477611940298 -1.032549253731343 -0.8295597014925382
H 3.12924776119403 -2.623249253731343 -0.4404597014925382
H 4.68244776119403 -2.5769492537313434 -1.3005597014925383
C 3.1110477611940297 3.755250746268656 2.588740298507462
H 3.40124776119403 4.809350746268656 2.534540298507462
H 2.9823477611940303 3.461750746268656 3.634840298507462
H 3.86514776119403 3.1392507462686563 2.091540298507462
C 1.99744776119403 3.9574507462686572 0.40494029850746194
H 2.67914776119403 3.230350746268657 -0.04295970149253803
H 1.03214776119403 3.981150746268657 -0.10175970149253821
H 2.4399477611940297 4.958250746268657 0.368240298507462
C 0.7418477611940297 4.4992507462686575 2.475440298507462
H -0.18475223880597014 4.424250746268656 1.901240298507462
H 0.57844776119403 4.189650746268656 3.511940298507462
H 1.1210477611940297 5.524350746268658 2.4432402985074617
N 3.00114776119403 -2.025349253731343 -2.490159701492538
N 1.7831477611940298 3.586450746268657 1.862540298507462
C -3.55075223880597 -3.8435492537313434 0.6444402985074619
H -2.62515223880597 -2.2736492537313433 1.7424402985074618
H -4.67195223880597 -1.3478492537313436 1.5102402985074619
H -4.83415223880597 -1.6757492537313432 -0.1945597014925382
H -3.7169522388059697 0.17335074626865676 -0.900559701492538
H -3.9132522388059705 -4.043149253731343 -0.34225970149253815
H -4.35435223880597 -3.9354492537313432 1.3449402985074619
H -2.78115223880597 -4.545049253731343 0.8904402985074619
H -5.24235223880597 1.138950746268657 1.5249402985074618
H -5.92805223880597 0.6501507462686567 -0.006059701492538094
H -4.89895223880597 2.059650746268657 0.08004029850746197
O -1.0105371395793705 -6.799010401204031 -1.9488940801413637
H -1.189641011627573 -6.544047996572907 -1.0313520744860054
H -0.04509291468872745 -6.8725875389031 -1.9871798181297708
O -0.3165504599776839 8.637451133646751 -0.7354387909775028
H -0.246014053140467 9.390262262788074 -0.12941290369919328
H -0.2398045481072279 7.863593455981674 -0.157324352453447
O 9.558694524315067 -3.2181259980447012 13.137338513811372
H 8.892558929784165 -2.715968751896366 13.630358621656562
H 9.060292800604666 -3.956376384576905 12.755836177137594
O 8.027471209409132 0.8203291128908116 -12.624896251394029
H 8.877822064915636 0.9677450531918217 -13.065508688786036
H 7.583341122433755 0.16689687599038905 -13.18591026362773
O -9.003185128622547 7.368369136002902 -9.92973512458674
H -8.07597913072492 7.0885780517653405 -9.96093357877656
H -8.970059024343366 8.242214367717239 -9.512291575678146
O -1.671963752622348 -8.980614767204395 1.6641965299523427
H -1.3703700141391884 -9.575771700577027 2.3669032955852325
H -1.593704314398486 -9.512076272872172 0.8577313585889264
O 1.787624302351905 7.985087371488557 -2.3287004519490546
H 1.777784701232875 8.939469480845677 -2.4961081234843636
H 1.6756270060144878 7.914669201366752 -1.368773459292944
O 4.386390679713702 0.4908081873579495 -12.516850466218688
H 4.439635188706265 -0.24668024929586696 -13.143143676276129
H 4.280617904305312 1.2707260578674986 -13.082095704626104
O 1.4339927060372066 3.926166326732681 -3.382121274409072
H 1.7478152730600691 3.840290775001559 -2.4693736954245766
H 1.531826266540202 3.0343078094616045 -3.748152589886782
O 4.131948622340271 0.7613339945089242 4.113557723758248
H 4.081376171715548 0.782280440771738 3.146101765832116
H 3.362556045250233 1.276419801329947 4.399361184602033
C -5.538631832177622 1.6117761549643448 5.761021719902196
O -4.440584781094948 1.1524782293180325 5.633914102484352
O -6.636678883260294 2.071074080610657 5.88812933732004
C -8.441027684491166 -1.9277627180339494 -8.760289632910654
O -8.333051435426128 -0.7126281975712891 -8.700584311390498
O -9.506707528714436 -2.543467135993238 -8.878043628264024
O -7.501314009772245 -2.729806050965794 -8.712195079727996