104

C -5.0710522388059704 1.0783507462686561 0.47044029850746183
C -3.8153522388059704 0.1782507462686569 0.19534029850746193
C -4.11845223880597 -1.3219492537313435 0.5608402985074619
C -2.96945223880597 -2.3874492537313436 0.7034402985074619
C -2.52015223880597 0.7359507462686565 0.7384402985074618
C -2.20305223880597 0.7852507462686571 2.097440298507462
C -1.5755522388059702 1.205650746268656 -0.18965970149253808
C -0.9533522388059701 1.2695507462686564 2.508640298507462
H -2.91125223880597 0.4298507462686567 2.840840298507462
C -0.32655223880597006 1.6562507462686575 0.21554029850746192
H -1.7850522388059702 1.178550746268657 -1.2573597014925382
C 0.004447761194029898 1.6956507462686563 1.569740298507462
H -0.7158522388059702 1.2676507462686573 3.5705402985074617
H 0.3943477611940298 1.9193507462686572 -0.5551597014925382
C -1.76045223880597 -2.1592492537313435 -0.1734597014925381
C -0.5287522388059701 -1.936549253731343 0.464840298507462
C -1.8068522388059702 -2.121249253731343 -1.5681597014925381
C 0.6114477611940299 -1.614449253731343 -0.2582597014925381
H -0.4544522388059702 -1.954049253731343 1.5506402985074619
C -0.6479522388059701 -1.8270492537313432 -2.2998597014925384
H -2.74345223880597 -2.290549253731343 -2.092259701492538
C 0.5698477611940298 -1.5506492537313434 -1.6506597014925382
H 1.5072477611940298 -1.351949253731343 0.2991402985074618
H -0.7173522388059701 -1.7640492537313435 -3.3840597014925375
C 1.7791477611940298 -1.082849253731343 -2.4255597014925376
H 1.4739477611940297 -0.9102492537313429 -3.464259701492538
H 2.1252477611940295 -0.1337492537313434 -2.0010597014925384
C 1.3965477611940298 2.0964507462686566 1.997440298507462
H 1.51704776119403 1.8448507462686567 3.057640298507462
H 2.1256477611940294 1.5207507462686571 1.4165402985074618
C 3.94864776119403 -1.4275492537313434 -3.522959701492538
H 4.81734776119403 -2.087049253731343 -3.615159701492538
H 3.4305477611940303 -1.3641492537313429 -4.484459701492538
H 4.26984776119403 -0.441449253731343 -3.176459701492538
C 2.60904776119403 -3.4296492537313434 -2.8992597014925376
H 1.9825477611940296 -3.869549253731343 -2.119359701492538
H 2.06294776119403 -3.373349253731343 -3.845759701492538
H 3.5215477611940305 -4.019849253731343 -3.0234597014925377
C 3.7281477611940304 -2.060049253731343 -1.156659701492538
H 3.9048477611940298 -1.032549253731343 -0.8295597014925382
H 3.12924776119403 -2.623249253731343 -0.4404597014925382
H 4.68244776119403 -2.5769492537313434 -1.3005597014925383
C 3.1110477611940297 3.755250746268656 2.588740298507462
H 3.40124776119403 4.809350746268656 2.534540298507462
H 2.9823477611940303 3.461750746268656 3.634840298507462
H 3.86514776119403 3.1392507462686563 2.091540298507462
C 1.99744776119403 3.9574507462686572 0.40494029850746194
H 2.67914776119403 3.230350746268657 -0.04295970149253803
H 1.03214776119403 3.981150746268657 -0.10175970149253821
H 2.4399477611940297 4.958250746268657 0.368240298507462
C 0.7418477611940297 4.4992507462686575 2.475440298507462
H -0.18475223880597014 4.424250746268656 1.901240298507462
H 0.57844776119403 4.189650746268656 3.511940298507462
H 1.1210477611940297 5.524350746268658 2.4432402985074617
N 3.00114776119403 -2.025349253731343 -2.490159701492538
N 1.7831477611940298 3.586450746268657 1.862540298507462
C -3.55075223880597 -3.8435492537313434 0.6444402985074619
H -2.62515223880597 -2.2736492537313433 1.7424402985074618
H -4.67195223880597 -1.3478492537313436 1.5102402985074619
H -4.83415223880597 -1.6757492537313432 -0.1945597014925382
H -3.7169522388059697 0.17335074626865676 -0.900559701492538
H -3.9132522388059705 -4.043149253731343 -0.34225970149253815
H -4.35435223880597 -3.9354492537313432 1.3449402985074619
H -2.78115223880597 -4.545049253731343 0.8904402985074619
H -5.24235223880597 1.138950746268657 1.5249402985074618
H -5.92805223880597 0.6501507462686567 -0.006059701492538094
H -4.89895223880597 2.059650746268657 0.08004029850746197
O -3.0224090984721537 -4.573929080073363 -5.120259298184799
H -2.290119188219914 -5.094321400446647 -5.483454393332403
H -3.706159811462655 -5.23348356278467 -4.929380302167951
O -1.0060532067036894 0.6429205075872814 -9.83136394912047
H -0.19982987639149152 0.27947078408761855 -10.22743919077075
H -0.8414433938877457 0.5928886707356007 -8.87775901565696
O -11.572488099082728 -6.284639654183038 11.332360795387448
H -11.323357167630148 -7.210682151125282 11.471452239231214
H -10.761596208087402 -5.871564085102377 10.999517199014146
O -4.152266184646316 0.3862754092480766 4.657222027279072
H -4.805447453729518 -0.15910678664523334 5.1207733696581546
H -3.3574996497089638 0.317851473363132 5.2073368009778775
O -2.704966830698535 10.519017884180034 -3.5429437741035996
H -3.049751590945516 11.12876202503443 -2.8733895129005447
H -2.9026223795665826 9.640979294333274 -3.183858181185165
O -0.6821628425341931 -6.269123149714396 0.9544911701346876
H -0.7746046292627883 -5.518000428158939 0.34931637709589203
H -1.1567386224149927 -5.987685886009943 1.7510668665057731
O -6.940166000960214 -0.9551039478635703 9.268787138343823
H -7.509139234796846 -0.495358590711548 8.633278662668914
H -6.650835804565473 -1.7480966715743511 8.792958890027334
O -0.7125200450997216 -2.423021978174313 5.644686670619862
H -1.5649101650794681 -2.8506536478657996 5.47284489648509
H -0.8268892553859072 -2.0148328342229695 6.516043802224798
O -1.4507748028838556 4.753723265134691 -2.4736056593648303
H -1.7629961750058936 5.629452980666019 -2.200507440722431
H -1.018974929823697 4.91451972311947 -3.3260464567371635
O 10.945233723950217 -5.572882151484599 -11.698148574318106
H 10.682756150124716 -5.892036521776586 -10.821670754825677
H 11.675001514823974 -6.15791510336517 -11.951402124968718
C -1.2386916954017544 1.2441484506373617 -5.644408053490399
O -1.920630844849494 1.5306785422168545 -6.585512596232565
O -0.556752545954015 0.9576183590578689 -4.703303510748233
C 7.144655323567349 4.191245379630749 -7.718288804836053
O 6.615544612319121 3.772920725139887 -6.700044316863006
O 6.709977576106136 4.031131924557594 -8.864609179542263
O 8.196678307220203 4.8394407501475865 -7.759987580677643