104

C -5.0710522388059704 1.0783507462686561 0.47044029850746183
C -3.8153522388059704 0.1782507462686569 0.19534029850746193
C -4.11845223880597 -1.3219492537313435 0.5608402985074619
C -2.96945223880597 -2.3874492537313436 0.7034402985074619
C -2.52015223880597 0.7359507462686565 0.7384402985074618
C -2.20305223880597 0.7852507462686571 2.097440298507462
C -1.5755522388059702 1.205650746268656 -0.18965970149253808
C -0.9533522388059701 1.2695507462686564 2.508640298507462
H -2.91125223880597 0.4298507462686567 2.840840298507462
C -0.32655223880597006 1.6562507462686575 0.21554029850746192
H -1.7850522388059702 1.178550746268657 -1.2573597014925382
C 0.004447761194029898 1.6956507462686563 1.569740298507462
H -0.7158522388059702 1.2676507462686573 3.5705402985074617
H 0.3943477611940298 1.9193507462686572 -0.5551597014925382
C -1.76045223880597 -2.1592492537313435 -0.1734597014925381
C -0.5287522388059701 -1.936549253731343 0.464840298507462
C -1.8068522388059702 -2.121249253731343 -1.5681597014925381
C 0.6114477611940299 -1.614449253731343 -0.2582597014925381
H -0.4544522388059702 -1.954049253731343 1.5506402985074619
C -0.6479522388059701 -1.8270492537313432 -2.2998597014925384
H -2.74345223880597 -2.290549253731343 -2.092259701492538
C 0.5698477611940298 -1.5506492537313434 -1.6506597014925382
H 1.5072477611940298 -1.351949253731343 0.2991402985074618
H -0.7173522388059701 -1.7640492537313435 -3.3840597014925375
C 1.7791477611940298 -1.082849253731343 -2.4255597014925376
H 1.4739477611940297 -0.9102492537313429 -3.464259701492538
H 2.1252477611940295 -0.1337492537313434 -2.0010597014925384
C 1.3965477611940298 2.0964507462686566 1.997440298507462
H 1.51704776119403 1.8448507462686567 3.057640298507462
H 2.1256477611940294 1.5207507462686571 1.4165402985074618
C 3.94864776119403 -1.4275492537313434 -3.522959701492538
H 4.81734776119403 -2.087049253731343 -3.615159701492538
H 3.4305477611940303 -1.3641492537313429 -4.484459701492538
H 4.26984776119403 -0.441449253731343 -3.176459701492538
C 2.60904776119403 -3.4296492537313434 -2.8992597014925376
H 1.9825477611940296 -3.869549253731343 -2.119359701492538
H 2.06294776119403 -3.373349253731343 -3.845759701492538
H 3.5215477611940305 -4.019849253731343 -3.0234597014925377
C 3.7281477611940304 -2.060049253731343 -1.156659701492538
H 3.9048477611940298 -1.032549253731343 -0.8295597014925382
H 3.12924776119403 -2.623249253731343 -0.4404597014925382
H 4.68244776119403 -2.5769492537313434 -1.3005597014925383
C 3.1110477611940297 3.755250746268656 2.588740298507462
H 3.40124776119403 4.809350746268656 2.534540298507462
H 2.9823477611940303 3.461750746268656 3.634840298507462
H 3.86514776119403 3.1392507462686563 2.091540298507462
C 1.99744776119403 3.9574507462686572 0.40494029850746194
H 2.67914776119403 3.230350746268657 -0.04295970149253803
H 1.03214776119403 3.981150746268657 -0.10175970149253821
H 2.4399477611940297 4.958250746268657 0.368240298507462
C 0.7418477611940297 4.4992507462686575 2.475440298507462
H -0.18475223880597014 4.424250746268656 1.901240298507462
H 0.57844776119403 4.189650746268656 3.511940298507462
H 1.1210477611940297 5.524350746268658 2.4432402985074617
N 3.00114776119403 -2.025349253731343 -2.490159701492538
N 1.7831477611940298 3.586450746268657 1.862540298507462
C -3.55075223880597 -3.8435492537313434 0.6444402985074619
H -2.62515223880597 -2.2736492537313433 1.7424402985074618
H -4.67195223880597 -1.3478492537313436 1.5102402985074619
H -4.83415223880597 -1.6757492537313432 -0.1945597014925382
H -3.7169522388059697 0.17335074626865676 -0.900559701492538
H -3.9132522388059705 -4.043149253731343 -0.34225970149253815
H -4.35435223880597 -3.9354492537313432 1.3449402985074619
H -2.78115223880597 -4.545049253731343 0.8904402985074619
H -5.24235223880597 1.138950746268657 1.5249402985074618
H -5.92805223880597 0.6501507462686567 -0.006059701492538094
H -4.89895223880597 2.059650746268657 0.08004029850746197
O 3.955101908438945 11.647606926861023 4.61637370593306
H 4.099344632979495 10.70182519166249 4.462561148962021
H 3.011020953180592 11.709369708121805 4.825797804521088
O -0.3753750310235375 -0.11688401279600012 -10.961776658560845
H -0.059507763273118665 0.6393181341472651 -10.444714245478746
H 0.43586880286522856 -0.5223024329171655 -11.303070213882233
O 4.214880286899515 5.282197714339335 -5.303097797782406
H 3.681058636913444 5.646331870291978 -6.025183747912171
H 4.402949390599962 4.374608893261753 -5.5857185478845786
O 13.953430686454897 -4.445506182301548 14.475914171511846
H 13.981987107928187 -3.9707549928641592 13.63166113135124
H 13.27966704616418 -3.9729675078649898 14.987491831778534
O 3.759560502746627 0.17975726481307958 10.225427812321051
H 3.7782636498860667 0.185285587766662 9.256620820793634
H 2.8347514413872035 0.37068385435460016 10.44276897669988
O -4.014201001533181 -8.599912755674051 6.0209571832460025
H -4.213789353157623 -7.911494527679148 5.368874220609962
H -3.146327163181216 -8.9347716348414 5.749615192306498
O -14.728072164263445 -1.6988228515873507 -14.881079134772452
H -14.649987758799128 -1.0669412753192127 -15.611555593048951
H -13.991613276586232 -1.4703480045620627 -14.29423205474392
O 1.1319315580014278 -1.062642468164392 -6.405497384049653
H 1.0373945959252107 -0.8341723511442509 -7.342424022229081
H 0.4400206605269853 -0.5447403851717797 -5.967320836653488
O -10.73609525279401 -1.5878832502361246 -10.641591404073385
H -11.587321961277325 -1.9566346292468122 -10.921596525709363
H -10.089457898104143 -2.253178681068116 -10.921241302220631
O 9.686863341668277 -0.30363215579108166 10.777338720062101
H 9.65613740144128 -0.24367334961419426 11.74399699218261
H 9.332376918029972 0.5473055054052759 10.478664287755288
C -9.301792930139444 -9.680168290598061 9.700237209457525
O -9.50359997549609 -9.674315034745094 8.520382170420804
O -9.099985884782797 -9.686021546451029 10.880092248494245
C -2.424011489920043 0.05581708571095275 -6.949704026599069
O -2.377115728499052 0.36617802440376696 -5.769342906477578
O -1.589906292607644 0.3760196849064089 -7.8043210632797795
O -3.3128439549683084 -0.6265031712950855 -7.472259574225768