104

C -5.0710522388059704 1.0783507462686561 0.47044029850746183
C -3.8153522388059704 0.1782507462686569 0.19534029850746193
C -4.11845223880597 -1.3219492537313435 0.5608402985074619
C -2.96945223880597 -2.3874492537313436 0.7034402985074619
C -2.52015223880597 0.7359507462686565 0.7384402985074618
C -2.20305223880597 0.7852507462686571 2.097440298507462
C -1.5755522388059702 1.205650746268656 -0.18965970149253808
C -0.9533522388059701 1.2695507462686564 2.508640298507462
H -2.91125223880597 0.4298507462686567 2.840840298507462
C -0.32655223880597006 1.6562507462686575 0.21554029850746192
H -1.7850522388059702 1.178550746268657 -1.2573597014925382
C 0.004447761194029898 1.6956507462686563 1.569740298507462
H -0.7158522388059702 1.2676507462686573 3.5705402985074617
H 0.3943477611940298 1.9193507462686572 -0.5551597014925382
C -1.76045223880597 -2.1592492537313435 -0.1734597014925381
C -0.5287522388059701 -1.936549253731343 0.464840298507462
C -1.8068522388059702 -2.121249253731343 -1.5681597014925381
C 0.6114477611940299 -1.614449253731343 -0.2582597014925381
H -0.4544522388059702 -1.954049253731343 1.5506402985074619
C -0.6479522388059701 -1.8270492537313432 -2.2998597014925384
H -2.74345223880597 -2.290549253731343 -2.092259701492538
C 0.5698477611940298 -1.5506492537313434 -1.6506597014925382
H 1.5072477611940298 -1.351949253731343 0.2991402985074618
H -0.7173522388059701 -1.7640492537313435 -3.3840597014925375
C 1.7791477611940298 -1.082849253731343 -2.4255597014925376
H 1.4739477611940297 -0.9102492537313429 -3.464259701492538
H 2.1252477611940295 -0.1337492537313434 -2.0010597014925384
C 1.3965477611940298 2.0964507462686566 1.997440298507462
H 1.51704776119403 1.8448507462686567 3.057640298507462
H 2.1256477611940294 1.5207507462686571 1.4165402985074618
C 3.94864776119403 -1.4275492537313434 -3.522959701492538
H 4.81734776119403 -2.087049253731343 -3.615159701492538
H 3.4305477611940303 -1.3641492537313429 -4.484459701492538
H 4.26984776119403 -0.441449253731343 -3.176459701492538
C 2.60904776119403 -3.4296492537313434 -2.8992597014925376
H 1.9825477611940296 -3.869549253731343 -2.119359701492538
H 2.06294776119403 -3.373349253731343 -3.845759701492538
H 3.5215477611940305 -4.019849253731343 -3.0234597014925377
C 3.7281477611940304 -2.060049253731343 -1.156659701492538
H 3.9048477611940298 -1.032549253731343 -0.8295597014925382
H 3.12924776119403 -2.623249253731343 -0.4404597014925382
H 4.68244776119403 -2.5769492537313434 -1.3005597014925383
C 3.1110477611940297 3.755250746268656 2.588740298507462
H 3.40124776119403 4.809350746268656 2.534540298507462
H 2.9823477611940303 3.461750746268656 3.634840298507462
H 3.86514776119403 3.1392507462686563 2.091540298507462
C 1.99744776119403 3.9574507462686572 0.40494029850746194
H 2.67914776119403 3.230350746268657 -0.04295970149253803
H 1.03214776119403 3.981150746268657 -0.10175970149253821
H 2.4399477611940297 4.958250746268657 0.368240298507462
C 0.7418477611940297 4.4992507462686575 2.475440298507462
H -0.18475223880597014 4.424250746268656 1.901240298507462
H 0.57844776119403 4.189650746268656 3.511940298507462
H 1.1210477611940297 5.524350746268658 2.4432402985074617
N 3.00114776119403 -2.025349253731343 -2.490159701492538
N 1.7831477611940298 3.586450746268657 1.862540298507462
C -3.55075223880597 -3.8435492537313434 0.6444402985074619
H -2.62515223880597 -2.2736492537313433 1.7424402985074618
H -4.67195223880597 -1.3478492537313436 1.5102402985074619
H -4.83415223880597 -1.6757492537313432 -0.1945597014925382
H -3.7169522388059697 0.17335074626865676 -0.900559701492538
H -3.9132522388059705 -4.043149253731343 -0.34225970149253815
H -4.35435223880597 -3.9354492537313432 1.3449402985074619
H -2.78115223880597 -4.545049253731343 0.8904402985074619
H -5.24235223880597 1.138950746268657 1.5249402985074618
H -5.92805223880597 0.6501507462686567 -0.006059701492538094
H -4.89895223880597 2.059650746268657 0.08004029850746197
O 4.778166244932394 0.8872239225312872 5.14915730742898
H 4.936773445417646 0.7911068257470657 4.198067082182182
H 4.331198227621744 1.7434900505619937 5.226551453129336
O 5.225917512442326 -0.2341114174518301 -5.7584181627472315
H 4.396757317296727 -0.25871466174239294 -6.259272840329953
H 5.608695754339084 0.6276489326479132 -5.981603872026285
O -2.0801966535330405 -0.9292966048060449 13.096705060120625
H -1.2350385510733386 -1.0264153514535528 12.632762081085124
H -2.7303132668123125 -0.843504746199148 12.38329767970249
O -4.5749271630065085 8.945061340804639 -4.506996368341383
H -4.621950658947992 8.110341715323543 -4.017099139765696
H -4.277679280016688 8.681340232386834 -5.3907705574490725
O 1.4372782941310043 5.658230567856079 -1.32186725943119
H 2.1306898721492145 6.325567013327069 -1.4350476858150891
H 1.36359596910249 5.246671508093098 -2.1960251396824653
O 8.482824484562588 -5.968575090674238 8.73086414492306
H 9.182402036562243 -6.632764593499969 8.639153131548003
H 8.516523266702308 -5.720877798895657 9.667065185313348
O -0.5730975683305282 9.216972976622042 1.2866258377346933
H -1.1510275266468915 8.439433169629437 1.3065298253339197
H -0.8232725766254803 9.673697556037073 0.4694495604953308
O -3.8984209123662534 4.634225750677733 4.262181430299912
H -3.8472457444724752 4.557587392515083 3.2975700986490866
H -4.020169646309635 3.721307253652223 4.563377392875552
O -6.042794647405481 3.6842363737234303 6.02166935237742
H -5.984032241982861 2.826436688620227 5.574797965012113
H -6.446753660980653 3.4752261895537906 6.877294154825751
O -9.778068011980611 1.557938731825013 -10.048037410237429
H -9.276731457951708 0.8947215454830936 -10.545804404156405
H -9.900459952686509 1.1530677632431396 -9.176222260134026
C 6.34140559682315 10.071122851629367 -6.39399624400077
O 5.579518276459318 10.697586574729252 -7.072147533912285
O 7.103292917186982 9.444659128529482 -5.715844954089255
C 2.625314604277853 -2.9175393060975168 6.01688224238689
O 2.184871807298923 -3.3031961800381557 4.944942684029372
O 2.3536212499403457 -3.410466201289202 7.11771704439195
O 3.4108977500757867 -1.9746409082713265 6.166715872840892