104

C -5.0710522388059704 1.0783507462686561 0.47044029850746183
C -3.8153522388059704 0.1782507462686569 0.19534029850746193
C -4.11845223880597 -1.3219492537313435 0.5608402985074619
C -2.96945223880597 -2.3874492537313436 0.7034402985074619
C -2.52015223880597 0.7359507462686565 0.7384402985074618
C -2.20305223880597 0.7852507462686571 2.097440298507462
C -1.5755522388059702 1.205650746268656 -0.18965970149253808
C -0.9533522388059701 1.2695507462686564 2.508640298507462
H -2.91125223880597 0.4298507462686567 2.840840298507462
C -0.32655223880597006 1.6562507462686575 0.21554029850746192
H -1.7850522388059702 1.178550746268657 -1.2573597014925382
C 0.004447761194029898 1.6956507462686563 1.569740298507462
H -0.7158522388059702 1.2676507462686573 3.5705402985074617
H 0.3943477611940298 1.9193507462686572 -0.5551597014925382
C -1.76045223880597 -2.1592492537313435 -0.1734597014925381
C -0.5287522388059701 -1.936549253731343 0.464840298507462
C -1.8068522388059702 -2.121249253731343 -1.5681597014925381
C 0.6114477611940299 -1.614449253731343 -0.2582597014925381
H -0.4544522388059702 -1.954049253731343 1.5506402985074619
C -0.6479522388059701 -1.8270492537313432 -2.2998597014925384
H -2.74345223880597 -2.290549253731343 -2.092259701492538
C 0.5698477611940298 -1.5506492537313434 -1.6506597014925382
H 1.5072477611940298 -1.351949253731343 0.2991402985074618
H -0.7173522388059701 -1.7640492537313435 -3.3840597014925375
C 1.7791477611940298 -1.082849253731343 -2.4255597014925376
H 1.4739477611940297 -0.9102492537313429 -3.464259701492538
H 2.1252477611940295 -0.1337492537313434 -2.0010597014925384
C 1.3965477611940298 2.0964507462686566 1.997440298507462
H 1.51704776119403 1.8448507462686567 3.057640298507462
H 2.1256477611940294 1.5207507462686571 1.4165402985074618
C 3.94864776119403 -1.4275492537313434 -3.522959701492538
H 4.81734776119403 -2.087049253731343 -3.615159701492538
H 3.4305477611940303 -1.3641492537313429 -4.484459701492538
H 4.26984776119403 -0.441449253731343 -3.176459701492538
C 2.60904776119403 -3.4296492537313434 -2.8992597014925376
H 1.9825477611940296 -3.869549253731343 -2.119359701492538
H 2.06294776119403 -3.373349253731343 -3.845759701492538
H 3.5215477611940305 -4.019849253731343 -3.0234597014925377
C 3.7281477611940304 -2.060049253731343 -1.156659701492538
H 3.9048477611940298 -1.032549253731343 -0.8295597014925382
H 3.12924776119403 -2.623249253731343 -0.4404597014925382
H 4.68244776119403 -2.5769492537313434 -1.3005597014925383
C 3.1110477611940297 3.755250746268656 2.588740298507462
H 3.40124776119403 4.809350746268656 2.534540298507462
H 2.9823477611940303 3.461750746268656 3.634840298507462
H 3.86514776119403 3.1392507462686563 2.091540298507462
C 1.99744776119403 3.9574507462686572 0.40494029850746194
H 2.67914776119403 3.230350746268657 -0.04295970149253803
H 1.03214776119403 3.981150746268657 -0.10175970149253821
H 2.4399477611940297 4.958250746268657 0.368240298507462
C 0.7418477611940297 4.4992507462686575 2.475440298507462
H -0.18475223880597014 4.424250746268656 1.901240298507462
H 0.57844776119403 4.189650746268656 3.511940298507462
H 1.1210477611940297 5.524350746268658 2.4432402985074617
N 3.00114776119403 -2.025349253731343 -2.490159701492538
N 1.7831477611940298 3.586450746268657 1.862540298507462
C -3.55075223880597 -3.8435492537313434 0.6444402985074619
H -2.62515223880597 -2.2736492537313433 1.7424402985074618
H -4.67195223880597 -1.3478492537313436 1.5102402985074619
H -4.83415223880597 -1.6757492537313432 -0.1945597014925382
H -3.7169522388059697 0.17335074626865676 -0.900559701492538
H -3.9132522388059705 -4.043149253731343 -0.34225970149253815
H -4.35435223880597 -3.9354492537313432 1.3449402985074619
H -2.78115223880597 -4.545049253731343 0.8904402985074619
H -5.24235223880597 1.138950746268657 1.5249402985074618
H -5.92805223880597 0.6501507462686567 -0.006059701492538094
H -4.89895223880597 2.059650746268657 0.08004029850746197
O -0.04069985472082693 7.002870816658466 -0.7537066541917798
H 0.26459360490619405 7.62345614488552 -0.07500413408574219
H 0.60882084671436 6.284435154584891 -0.7231288490376288
O -4.562499034896838 0.3659987702707749 -10.27147749780433
H -3.776474745742123 0.15692992323897936 -9.744767529264127
H -5.219682208801414 -0.28328561140769665 -9.97907022712675
O -4.6509818454949015 -5.945384293765096 5.567469407387084
H -5.210865213835057 -5.1550953987870205 5.536786623445353
H -3.8372488720116404 -5.639266450260197 5.995362452497659
O -2.3136795344529997 2.4435543554716412 -4.7054883776322445
H -2.2725519355457067 2.425929027208595 -5.673458018329587
H -1.8762346550712103 1.6214515663866578 -4.437624744450466
O -5.011359422531613 0.03434105788413578 10.740529324390106
H -4.069985101413231 0.17152840845504583 10.55624320097806
H -5.047234877386108 -0.08123407126725099 11.701943535623029
O 2.3578517357846684 5.378133499536439 -2.708074169358515
H 2.372145084233117 5.42962526326988 -3.6756028021946454
H 2.4060186331057287 4.428092677975114 -2.5235089189196955
O -1.221208853470802 -6.270880258065239 -1.435230747493636
H -1.2947577407981679 -6.672030411788413 -2.3142281719726743
H -1.9776644178531417 -6.632010185476013 -0.9491010333809472
O 6.412393621947613 5.0899190862469625 -5.916559607944396
H 5.512080033731883 4.924269579224524 -5.598812789553809
H 6.293979886980536 5.304300814135053 -6.854099263862407
O 5.929279360532028 1.2411593740488207 -5.89641786066437
H 6.1327937516746935 1.9322310123363144 -5.248367522918549
H 5.049264671353292 1.4797467776356947 -6.224460757218045
O 4.828817172133642 7.873630123619735 5.088471479111449
H 4.8266563055810145 7.815342308808509 4.1212252756036385
H 4.881180505319093 6.950524771383964 5.378465503724687
C -9.31800529652962 -4.61872587955461 -9.855680414700593
O -9.196943346973118 -4.780297043651503 -11.035535075496554
O -9.439067246086122 -4.457154715457717 -8.675825753904633
C 2.4726947172675753 -0.49367622771794256 6.82174994715224
O 1.952704212474933 -0.538439773759347 5.7174938181353845
O 1.8709829609337572 -0.3073610877239792 7.885639553736825
O 3.6811130670533476 -0.6277661821991505 7.046234602325505