104

C -5.0710522388059704 1.0783507462686561 0.47044029850746183
C -3.8153522388059704 0.1782507462686569 0.19534029850746193
C -4.11845223880597 -1.3219492537313435 0.5608402985074619
C -2.96945223880597 -2.3874492537313436 0.7034402985074619
C -2.52015223880597 0.7359507462686565 0.7384402985074618
C -2.20305223880597 0.7852507462686571 2.097440298507462
C -1.5755522388059702 1.205650746268656 -0.18965970149253808
C -0.9533522388059701 1.2695507462686564 2.508640298507462
H -2.91125223880597 0.4298507462686567 2.840840298507462
C -0.32655223880597006 1.6562507462686575 0.21554029850746192
H -1.7850522388059702 1.178550746268657 -1.2573597014925382
C 0.004447761194029898 1.6956507462686563 1.569740298507462
H -0.7158522388059702 1.2676507462686573 3.5705402985074617
H 0.3943477611940298 1.9193507462686572 -0.5551597014925382
C -1.76045223880597 -2.1592492537313435 -0.1734597014925381
C -0.5287522388059701 -1.936549253731343 0.464840298507462
C -1.8068522388059702 -2.121249253731343 -1.5681597014925381
C 0.6114477611940299 -1.614449253731343 -0.2582597014925381
H -0.4544522388059702 -1.954049253731343 1.5506402985074619
C -0.6479522388059701 -1.8270492537313432 -2.2998597014925384
H -2.74345223880597 -2.290549253731343 -2.092259701492538
C 0.5698477611940298 -1.5506492537313434 -1.6506597014925382
H 1.5072477611940298 -1.351949253731343 0.2991402985074618
H -0.7173522388059701 -1.7640492537313435 -3.3840597014925375
C 1.7791477611940298 -1.082849253731343 -2.4255597014925376
H 1.4739477611940297 -0.9102492537313429 -3.464259701492538
H 2.1252477611940295 -0.1337492537313434 -2.0010597014925384
C 1.3965477611940298 2.0964507462686566 1.997440298507462
H 1.51704776119403 1.8448507462686567 3.057640298507462
H 2.1256477611940294 1.5207507462686571 1.4165402985074618
C 3.94864776119403 -1.4275492537313434 -3.522959701492538
H 4.81734776119403 -2.087049253731343 -3.615159701492538
H 3.4305477611940303 -1.3641492537313429 -4.484459701492538
H 4.26984776119403 -0.441449253731343 -3.176459701492538
C 2.60904776119403 -3.4296492537313434 -2.8992597014925376
H 1.9825477611940296 -3.869549253731343 -2.119359701492538
H 2.06294776119403 -3.373349253731343 -3.845759701492538
H 3.5215477611940305 -4.019849253731343 -3.0234597014925377
C 3.7281477611940304 -2.060049253731343 -1.156659701492538
H 3.9048477611940298 -1.032549253731343 -0.8295597014925382
H 3.12924776119403 -2.623249253731343 -0.4404597014925382
H 4.68244776119403 -2.5769492537313434 -1.3005597014925383
C 3.1110477611940297 3.755250746268656 2.588740298507462
H 3.40124776119403 4.809350746268656 2.534540298507462
H 2.9823477611940303 3.461750746268656 3.634840298507462
H 3.86514776119403 3.1392507462686563 2.091540298507462
C 1.99744776119403 3.9574507462686572 0.40494029850746194
H 2.67914776119403 3.230350746268657 -0.04295970149253803
H 1.03214776119403 3.981150746268657 -0.10175970149253821
H 2.4399477611940297 4.958250746268657 0.368240298507462
C 0.7418477611940297 4.4992507462686575 2.475440298507462
H -0.18475223880597014 4.424250746268656 1.901240298507462
H 0.57844776119403 4.189650746268656 3.511940298507462
H 1.1210477611940297 5.524350746268658 2.4432402985074617
N 3.00114776119403 -2.025349253731343 -2.490159701492538
N 1.7831477611940298 3.586450746268657 1.862540298507462
C -3.55075223880597 -3.8435492537313434 0.6444402985074619
H -2.62515223880597 -2.2736492537313433 1.7424402985074618
H -4.67195223880597 -1.3478492537313436 1.5102402985074619
H -4.83415223880597 -1.6757492537313432 -0.1945597014925382
H -3.7169522388059697 0.17335074626865676 -0.900559701492538
H -3.9132522388059705 -4.043149253731343 -0.34225970149253815
H -4.35435223880597 -3.9354492537313432 1.3449402985074619
H -2.78115223880597 -4.545049253731343 0.8904402985074619
H -5.24235223880597 1.138950746268657 1.5249402985074618
H -5.92805223880597 0.6501507462686567 -0.006059701492538094
H -4.89895223880597 2.059650746268657 0.08004029850746197
O -2.7983547972256586 12.146389611621387 -3.1525270980800792
H -2.1363022565612146 12.756203526902608 -3.5113874874087756
H -2.512925839346945 12.002943579909006 -2.237696244703215
O -1.1755528063648784 5.729812454505624 3.1179739673836244
H -1.0457452962774751 5.660273939534278 4.075722244417047
H -1.868172488907424 5.079367546860702 2.9278126101801916
O 6.432532457670332 -7.122706102320866 -7.358428841056204
H 6.420267157734583 -7.126057631348115 -6.389508985458918
H 5.972505032810682 -7.940275114921833 -7.601158366066407
O -0.6191128159731287 -4.741928296507387 0.9249342741525721
H -0.24386387825345412 -4.4984249091947035 0.06536363016366409
H -0.9247080674212605 -5.652592640964616 0.797404127416053
O -0.4983611797122172 0.005985737258657753 5.362484553561537
H -0.6022550550845851 -0.18021144913644593 6.307737973200239
H -0.224803347485605 -0.8436184184843911 4.985256724164477
O 8.654541553173495 -2.533130215541319 8.614512277430586
H 8.778247959155456 -3.384496506995857 9.06042652904627
H 8.04257576432406 -2.7347272348761194 7.89075923987343
O -1.3631755565955987 -10.537071869739938 -2.057789935703095
H -1.4151259026851815 -10.827032133723854 -1.1346477127755812
H -1.4436767757246511 -11.358215471440841 -2.5659283847545336
O -2.8595709720150353 -0.5766102153091882 -8.103110480403265
H -2.4180265101250296 -1.3089553566089682 -7.647395175537527
H -2.4642006502230687 0.21599256831376368 -7.710140913719959
O 4.037966947923725 2.502188567179891 -6.5630044406890615
H 3.7519030739535792 3.1959445886270856 -7.176060229027247
H 4.59602624385062 2.970181601468473 -5.923853217278714
O -1.8229543498844958 -4.74465775611684 -2.206101125432113
H -1.7446498611205437 -5.469286059694324 -2.8446538527724923
H -2.4680182227924217 -5.07029480699007 -1.5604889699799311
C -1.3747763128291828 0.09747122312252357 -12.967448684506618
O -2.386524358672817 0.5425831218372061 -13.42686085963283
O -0.3630282669855489 -0.3476406755921588 -12.508036509380405
C -4.412639432106921 11.069757056195062 4.420277936574083
O -4.983975655256997 10.032371496411983 4.718910853497442
O -4.609872573733847 11.719921757350829 3.3873130710946193
O -3.548797834007817 11.6299512869086 5.104827789885624