67

C         -3.71090        8.00180       -1.12240
C         -2.45520        7.10170       -1.39750
C         -2.75830        5.60150       -1.03200
C         -1.60930        4.53600       -0.88940
C         -1.16000        7.65940       -0.85440
C         -0.84290        7.70870        0.50460
C         -0.21540        8.12910       -1.78250
C          0.40680        8.19300        0.91580
H         -1.55110        7.35330        1.24800
C          1.03360        8.57970       -1.37730
H         -0.42490        8.10200       -2.85020
C          1.36460        8.61910       -0.02310
H          0.64430        8.19110        1.97770
H          1.75450        8.84280       -2.14800
C         -0.40030        4.76420       -1.76630
C          0.83140        4.98690       -1.12800
C         -0.44670        4.80220       -3.16100
C          1.97160        5.30900       -1.85110
H          0.90570        4.96940       -0.04220
C          0.71220        5.09640       -3.89270
H         -1.38330        4.63290       -3.68510
C          1.93000        5.37280       -3.24350
H          2.86740        5.57150       -1.29370
H          0.64280        5.15940       -4.97690
C          3.13930        5.84060       -4.01840
H          2.83410        6.01320       -5.05710
H          3.48540        6.78970       -3.59390
C          2.75670        9.01990        0.40460
H          2.87720        8.76830        1.46480
H          3.48580        8.44420       -0.17630
C          5.30880        5.49590       -5.11580
H          6.17750        4.83640       -5.20800
H          4.79070        5.55930       -6.07730
H          5.63000        6.48200       -4.76930
C          3.96920        3.49380       -4.49210
H          3.34270        3.05390       -3.71220
H          3.42310        3.55010       -5.43860
H          4.88170        2.90360       -4.61630
C          5.08830        4.86340       -2.74950
H          5.26500        5.89090       -2.42240
H          4.48940        4.30020       -2.03330
H          6.04260        4.34650       -2.89340
C          4.47120       10.67870        0.99590
H          4.76140       11.73280        0.94170
H          4.34250       10.38520        2.04200
H          5.22530       10.06270        0.49870
C          3.35760       10.88090       -1.18790
H          4.03930       10.15380       -1.63580
H          2.39230       10.90460       -1.69460
H          3.80010       11.88170       -1.22460
C          2.10200       11.42270        0.88260
H          1.17540       11.34770        0.30840
H          1.93860       11.11310        1.91910
H          2.48120       12.44780        0.85040
N          4.36130        4.89810       -4.08300
N          3.14330       10.50990        0.26970
C         -2.19060        3.07990       -0.94840
H         -1.26500        4.64980        0.14960
H         -3.31180        5.57560       -0.08260
H         -3.47400        5.24770       -1.78740
H         -2.35680        7.09680       -2.49340
H         -2.55310        2.88030       -1.93510
H         -2.99420        2.98800       -0.24790
H         -1.42100        2.37840       -0.70240
H         -3.88220        8.06240       -0.06790
H         -4.56790        7.57360       -1.59890
H         -3.53880        8.98310       -1.51280
