104

C -5.0710522388059704 1.0783507462686561 0.47044029850746183
C -3.8153522388059704 0.1782507462686569 0.19534029850746193
C -4.11845223880597 -1.3219492537313435 0.5608402985074619
C -2.96945223880597 -2.3874492537313436 0.7034402985074619
C -2.52015223880597 0.7359507462686565 0.7384402985074618
C -2.20305223880597 0.7852507462686571 2.097440298507462
C -1.5755522388059702 1.205650746268656 -0.18965970149253808
C -0.9533522388059701 1.2695507462686564 2.508640298507462
H -2.91125223880597 0.4298507462686567 2.840840298507462
C -0.32655223880597006 1.6562507462686575 0.21554029850746192
H -1.7850522388059702 1.178550746268657 -1.2573597014925382
C 0.004447761194029898 1.6956507462686563 1.569740298507462
H -0.7158522388059702 1.2676507462686573 3.5705402985074617
H 0.3943477611940298 1.9193507462686572 -0.5551597014925382
C -1.76045223880597 -2.1592492537313435 -0.1734597014925381
C -0.5287522388059701 -1.936549253731343 0.464840298507462
C -1.8068522388059702 -2.121249253731343 -1.5681597014925381
C 0.6114477611940299 -1.614449253731343 -0.2582597014925381
H -0.4544522388059702 -1.954049253731343 1.5506402985074619
C -0.6479522388059701 -1.8270492537313432 -2.2998597014925384
H -2.74345223880597 -2.290549253731343 -2.092259701492538
C 0.5698477611940298 -1.5506492537313434 -1.6506597014925382
H 1.5072477611940298 -1.351949253731343 0.2991402985074618
H -0.7173522388059701 -1.7640492537313435 -3.3840597014925375
C 1.7791477611940298 -1.082849253731343 -2.4255597014925376
H 1.4739477611940297 -0.9102492537313429 -3.464259701492538
H 2.1252477611940295 -0.1337492537313434 -2.0010597014925384
C 1.3965477611940298 2.0964507462686566 1.997440298507462
H 1.51704776119403 1.8448507462686567 3.057640298507462
H 2.1256477611940294 1.5207507462686571 1.4165402985074618
C 3.94864776119403 -1.4275492537313434 -3.522959701492538
H 4.81734776119403 -2.087049253731343 -3.615159701492538
H 3.4305477611940303 -1.3641492537313429 -4.484459701492538
H 4.26984776119403 -0.441449253731343 -3.176459701492538
C 2.60904776119403 -3.4296492537313434 -2.8992597014925376
H 1.9825477611940296 -3.869549253731343 -2.119359701492538
H 2.06294776119403 -3.373349253731343 -3.845759701492538
H 3.5215477611940305 -4.019849253731343 -3.0234597014925377
C 3.7281477611940304 -2.060049253731343 -1.156659701492538
H 3.9048477611940298 -1.032549253731343 -0.8295597014925382
H 3.12924776119403 -2.623249253731343 -0.4404597014925382
H 4.68244776119403 -2.5769492537313434 -1.3005597014925383
C 3.1110477611940297 3.755250746268656 2.588740298507462
H 3.40124776119403 4.809350746268656 2.534540298507462
H 2.9823477611940303 3.461750746268656 3.634840298507462
H 3.86514776119403 3.1392507462686563 2.091540298507462
C 1.99744776119403 3.9574507462686572 0.40494029850746194
H 2.67914776119403 3.230350746268657 -0.04295970149253803
H 1.03214776119403 3.981150746268657 -0.10175970149253821
H 2.4399477611940297 4.958250746268657 0.368240298507462
C 0.7418477611940297 4.4992507462686575 2.475440298507462
H -0.18475223880597014 4.424250746268656 1.901240298507462
H 0.57844776119403 4.189650746268656 3.511940298507462
H 1.1210477611940297 5.524350746268658 2.4432402985074617
N 3.00114776119403 -2.025349253731343 -2.490159701492538
N 1.7831477611940298 3.586450746268657 1.862540298507462
C -3.55075223880597 -3.8435492537313434 0.6444402985074619
H -2.62515223880597 -2.2736492537313433 1.7424402985074618
H -4.67195223880597 -1.3478492537313436 1.5102402985074619
H -4.83415223880597 -1.6757492537313432 -0.1945597014925382
H -3.7169522388059697 0.17335074626865676 -0.900559701492538
H -3.9132522388059705 -4.043149253731343 -0.34225970149253815
H -4.35435223880597 -3.9354492537313432 1.3449402985074619
H -2.78115223880597 -4.545049253731343 0.8904402985074619
H -5.24235223880597 1.138950746268657 1.5249402985074618
H -5.92805223880597 0.6501507462686567 -0.006059701492538094
H -4.89895223880597 2.059650746268657 0.08004029850746197
O 10.691370374558304 6.132477891840083 12.736914889677662
H 11.355580003033117 6.821630551577631 12.58571456587505
H 10.773651447194975 5.931250114544838 13.681213121715915
O -6.237275840380797 9.215561471967737 7.147091163436099
H -5.871225632758379 9.38900229683514 6.2668111610113595
H -6.541851682161155 8.297031475110469 7.097109709103774
O -3.5149026710390205 0.741546759976801 -12.002154163989587
H -3.5129929153889807 0.3222189770985916 -11.128582232068808
H -3.9270060983106725 1.6046401248543123 -11.846582466578482
O 10.357409981016787 2.508481251312831 10.610024476253887
H 10.532599022975843 2.303761932166631 11.540812398847313
H 10.406030009446129 1.647613745516499 10.167864805320942
O 3.6471200170016207 8.653280497091073 -4.274046349263965
H 4.220619561040205 8.29120042515204 -4.966118347969418
H 3.882707596674614 8.143478695104266 -3.484386574870698
O -0.18348312752569226 -7.320750343001655 -0.4116805546107011
H 0.033062573490855285 -7.891213911392202 -1.1644399008896942
H -1.1385476033854398 -7.178555773686438 -0.4928870550155616
O -4.161996274261332 -4.858308498038102 -4.374696547072343
H -4.138265127030796 -5.2855556988167685 -3.505292142334296
H -3.861484667635863 -5.5496719604283795 -4.983524340011452
O -2.8072202131792956 5.61565261321363 -2.530595352150036
H -2.5452144829829653 5.048297277687574 -1.7900359166592674
H -1.9848452218877586 5.749398121457074 -3.0253412030906444
O 2.707205657309322 -3.5949327487370697 -8.108621150946577
H 2.346770199650389 -2.728993791479314 -8.351938556952698
H 2.5416269308170207 -3.658083978157036 -7.155963000372126
O 6.1622867669785935 -2.245666933316465 -10.006996197663343
H 6.443034276544574 -3.082970392718083 -10.405833394582817
H 5.206087156395814 -2.3508973144785763 -9.890502352753762
C 9.977507559222337 -6.851587657682215 -11.54087753954347
O 8.902579125068973 -6.339351198568031 -11.663192414774414
O 11.0524359933757 -7.3638241167963985 -11.418562664312525
C -0.0887904254476261 -0.06824723069162476 12.598050388541374
O 0.44211739577743825 -1.0071113249611974 13.171152994061039
O -1.1459513218224442 0.47180043825113294 12.94358015360581
O 0.3489493994975513 0.4871158046357851 11.583849161442485