104

C -5.0710522388059704 1.0783507462686561 0.47044029850746183
C -3.8153522388059704 0.1782507462686569 0.19534029850746193
C -4.11845223880597 -1.3219492537313435 0.5608402985074619
C -2.96945223880597 -2.3874492537313436 0.7034402985074619
C -2.52015223880597 0.7359507462686565 0.7384402985074618
C -2.20305223880597 0.7852507462686571 2.097440298507462
C -1.5755522388059702 1.205650746268656 -0.18965970149253808
C -0.9533522388059701 1.2695507462686564 2.508640298507462
H -2.91125223880597 0.4298507462686567 2.840840298507462
C -0.32655223880597006 1.6562507462686575 0.21554029850746192
H -1.7850522388059702 1.178550746268657 -1.2573597014925382
C 0.004447761194029898 1.6956507462686563 1.569740298507462
H -0.7158522388059702 1.2676507462686573 3.5705402985074617
H 0.3943477611940298 1.9193507462686572 -0.5551597014925382
C -1.76045223880597 -2.1592492537313435 -0.1734597014925381
C -0.5287522388059701 -1.936549253731343 0.464840298507462
C -1.8068522388059702 -2.121249253731343 -1.5681597014925381
C 0.6114477611940299 -1.614449253731343 -0.2582597014925381
H -0.4544522388059702 -1.954049253731343 1.5506402985074619
C -0.6479522388059701 -1.8270492537313432 -2.2998597014925384
H -2.74345223880597 -2.290549253731343 -2.092259701492538
C 0.5698477611940298 -1.5506492537313434 -1.6506597014925382
H 1.5072477611940298 -1.351949253731343 0.2991402985074618
H -0.7173522388059701 -1.7640492537313435 -3.3840597014925375
C 1.7791477611940298 -1.082849253731343 -2.4255597014925376
H 1.4739477611940297 -0.9102492537313429 -3.464259701492538
H 2.1252477611940295 -0.1337492537313434 -2.0010597014925384
C 1.3965477611940298 2.0964507462686566 1.997440298507462
H 1.51704776119403 1.8448507462686567 3.057640298507462
H 2.1256477611940294 1.5207507462686571 1.4165402985074618
C 3.94864776119403 -1.4275492537313434 -3.522959701492538
H 4.81734776119403 -2.087049253731343 -3.615159701492538
H 3.4305477611940303 -1.3641492537313429 -4.484459701492538
H 4.26984776119403 -0.441449253731343 -3.176459701492538
C 2.60904776119403 -3.4296492537313434 -2.8992597014925376
H 1.9825477611940296 -3.869549253731343 -2.119359701492538
H 2.06294776119403 -3.373349253731343 -3.845759701492538
H 3.5215477611940305 -4.019849253731343 -3.0234597014925377
C 3.7281477611940304 -2.060049253731343 -1.156659701492538
H 3.9048477611940298 -1.032549253731343 -0.8295597014925382
H 3.12924776119403 -2.623249253731343 -0.4404597014925382
H 4.68244776119403 -2.5769492537313434 -1.3005597014925383
C 3.1110477611940297 3.755250746268656 2.588740298507462
H 3.40124776119403 4.809350746268656 2.534540298507462
H 2.9823477611940303 3.461750746268656 3.634840298507462
H 3.86514776119403 3.1392507462686563 2.091540298507462
C 1.99744776119403 3.9574507462686572 0.40494029850746194
H 2.67914776119403 3.230350746268657 -0.04295970149253803
H 1.03214776119403 3.981150746268657 -0.10175970149253821
H 2.4399477611940297 4.958250746268657 0.368240298507462
C 0.7418477611940297 4.4992507462686575 2.475440298507462
H -0.18475223880597014 4.424250746268656 1.901240298507462
H 0.57844776119403 4.189650746268656 3.511940298507462
H 1.1210477611940297 5.524350746268658 2.4432402985074617
N 3.00114776119403 -2.025349253731343 -2.490159701492538
N 1.7831477611940298 3.586450746268657 1.862540298507462
C -3.55075223880597 -3.8435492537313434 0.6444402985074619
H -2.62515223880597 -2.2736492537313433 1.7424402985074618
H -4.67195223880597 -1.3478492537313436 1.5102402985074619
H -4.83415223880597 -1.6757492537313432 -0.1945597014925382
H -3.7169522388059697 0.17335074626865676 -0.900559701492538
H -3.9132522388059705 -4.043149253731343 -0.34225970149253815
H -4.35435223880597 -3.9354492537313432 1.3449402985074619
H -2.78115223880597 -4.545049253731343 0.8904402985074619
H -5.24235223880597 1.138950746268657 1.5249402985074618
H -5.92805223880597 0.6501507462686567 -0.006059701492538094
H -4.89895223880597 2.059650746268657 0.08004029850746197
O 0.29157212222973394 7.025903971807508 -0.6494762082984724
H 0.11428659291564347 7.772020694459034 -1.2417996285475543
H 1.2224902888849827 6.812810097904424 -0.8136234354946896
O -4.1149249411735305 6.9662074700759815 -4.904866497820671
H -4.700129367029194 7.53421784096017 -5.428189873399242
H -4.705994033572473 6.555963703295136 -4.255790751756969
O 2.844548661229672 7.502842975709449 -2.8524381496217575
H 2.3550486436695772 6.9841919832478405 -3.5084550988900345
H 2.8296063060234116 6.948842893454153 -2.0575654685073443
O 12.136570943203601 -7.502011839395197 -13.008294874665408
H 12.136006233057055 -7.174575426014751 -12.096290251214956
H 11.630144675101413 -6.835605553930693 -13.496554070144091
O 10.042760570667188 -4.567797503369957 12.644995420007449
H 9.419760011645554 -4.9199238138819 11.9916618744092
H 10.485408183994553 -5.355669588428083 12.99468472825371
O -2.8219598686682206 -7.104522205219052 3.5551357253615
H -2.5058919575285676 -6.885823580010825 2.6656193715040515
H -3.138205482200541 -8.016814138073688 3.4734406491945817
O -4.201091319787349 1.1347135220767843 -4.873507580630509
H -3.909595874749717 0.5272802265263113 -4.17707197421811
H -4.078486982221154 0.629428498441845 -5.691197720964971
O 10.413443358498986 0.19884536912821082 -14.020172066008412
H 10.053625582755599 -0.5407176233214817 -14.53256362073774
H 11.07030582263123 -0.21553651078397143 -13.44070566912714
O 2.0579489952760897 0.4782208507781529 -10.048454537583483
H 2.109514131335961 1.1402474215074831 -9.342742688957223
H 1.6727432341165422 0.961335391943043 -10.794898645326676
O 5.128076648531538 -12.536139732801717 6.243165612366728
H 5.731354237512524 -13.04296316904615 5.679114628849569
H 5.373284594830086 -11.6132881429103 6.07830218280476
C -5.704206684587002 -7.636165646476234 -7.779980897752155
O -4.561567931210176 -7.902782416676716 -8.016857309472098
O -6.846845437963829 -7.369548876275752 -7.543104486032213
C 6.366799947946928 8.516276044115335 -7.779406462207581
O 5.717562778927728 7.481831363231831 -7.765593455447362
O 7.533495959924843 8.620034366493913 -8.175242400788218
O 5.957584060335798 9.61945305714538 -7.39968127256546