104

C -5.0710522388059704 1.0783507462686561 0.47044029850746183
C -3.8153522388059704 0.1782507462686569 0.19534029850746193
C -4.11845223880597 -1.3219492537313435 0.5608402985074619
C -2.96945223880597 -2.3874492537313436 0.7034402985074619
C -2.52015223880597 0.7359507462686565 0.7384402985074618
C -2.20305223880597 0.7852507462686571 2.097440298507462
C -1.5755522388059702 1.205650746268656 -0.18965970149253808
C -0.9533522388059701 1.2695507462686564 2.508640298507462
H -2.91125223880597 0.4298507462686567 2.840840298507462
C -0.32655223880597006 1.6562507462686575 0.21554029850746192
H -1.7850522388059702 1.178550746268657 -1.2573597014925382
C 0.004447761194029898 1.6956507462686563 1.569740298507462
H -0.7158522388059702 1.2676507462686573 3.5705402985074617
H 0.3943477611940298 1.9193507462686572 -0.5551597014925382
C -1.76045223880597 -2.1592492537313435 -0.1734597014925381
C -0.5287522388059701 -1.936549253731343 0.464840298507462
C -1.8068522388059702 -2.121249253731343 -1.5681597014925381
C 0.6114477611940299 -1.614449253731343 -0.2582597014925381
H -0.4544522388059702 -1.954049253731343 1.5506402985074619
C -0.6479522388059701 -1.8270492537313432 -2.2998597014925384
H -2.74345223880597 -2.290549253731343 -2.092259701492538
C 0.5698477611940298 -1.5506492537313434 -1.6506597014925382
H 1.5072477611940298 -1.351949253731343 0.2991402985074618
H -0.7173522388059701 -1.7640492537313435 -3.3840597014925375
C 1.7791477611940298 -1.082849253731343 -2.4255597014925376
H 1.4739477611940297 -0.9102492537313429 -3.464259701492538
H 2.1252477611940295 -0.1337492537313434 -2.0010597014925384
C 1.3965477611940298 2.0964507462686566 1.997440298507462
H 1.51704776119403 1.8448507462686567 3.057640298507462
H 2.1256477611940294 1.5207507462686571 1.4165402985074618
C 3.94864776119403 -1.4275492537313434 -3.522959701492538
H 4.81734776119403 -2.087049253731343 -3.615159701492538
H 3.4305477611940303 -1.3641492537313429 -4.484459701492538
H 4.26984776119403 -0.441449253731343 -3.176459701492538
C 2.60904776119403 -3.4296492537313434 -2.8992597014925376
H 1.9825477611940296 -3.869549253731343 -2.119359701492538
H 2.06294776119403 -3.373349253731343 -3.845759701492538
H 3.5215477611940305 -4.019849253731343 -3.0234597014925377
C 3.7281477611940304 -2.060049253731343 -1.156659701492538
H 3.9048477611940298 -1.032549253731343 -0.8295597014925382
H 3.12924776119403 -2.623249253731343 -0.4404597014925382
H 4.68244776119403 -2.5769492537313434 -1.3005597014925383
C 3.1110477611940297 3.755250746268656 2.588740298507462
H 3.40124776119403 4.809350746268656 2.534540298507462
H 2.9823477611940303 3.461750746268656 3.634840298507462
H 3.86514776119403 3.1392507462686563 2.091540298507462
C 1.99744776119403 3.9574507462686572 0.40494029850746194
H 2.67914776119403 3.230350746268657 -0.04295970149253803
H 1.03214776119403 3.981150746268657 -0.10175970149253821
H 2.4399477611940297 4.958250746268657 0.368240298507462
C 0.7418477611940297 4.4992507462686575 2.475440298507462
H -0.18475223880597014 4.424250746268656 1.901240298507462
H 0.57844776119403 4.189650746268656 3.511940298507462
H 1.1210477611940297 5.524350746268658 2.4432402985074617
N 3.00114776119403 -2.025349253731343 -2.490159701492538
N 1.7831477611940298 3.586450746268657 1.862540298507462
C -3.55075223880597 -3.8435492537313434 0.6444402985074619
H -2.62515223880597 -2.2736492537313433 1.7424402985074618
H -4.67195223880597 -1.3478492537313436 1.5102402985074619
H -4.83415223880597 -1.6757492537313432 -0.1945597014925382
H -3.7169522388059697 0.17335074626865676 -0.900559701492538
H -3.9132522388059705 -4.043149253731343 -0.34225970149253815
H -4.35435223880597 -3.9354492537313432 1.3449402985074619
H -2.78115223880597 -4.545049253731343 0.8904402985074619
H -5.24235223880597 1.138950746268657 1.5249402985074618
H -5.92805223880597 0.6501507462686567 -0.006059701492538094
H -4.89895223880597 2.059650746268657 0.08004029850746197
O 3.417577102746816 -0.208893256980257 9.686008372427235
H 3.479297084501301 -0.23703724990044664 10.65263442029411
H 3.9032553368974723 -0.9961719838456669 9.397441563182861
O 2.25162156034838 1.6081123734978817 -6.502269771709267
H 2.3688373129089313 1.6942834649498337 -7.460289796160554
H 1.8749502614688072 2.4599598929661166 -6.23499373373319
O 1.0535455784196304 0.4805207111228638 -10.029578643692568
H 0.9394479458252636 0.19183346156269931 -9.111641413225392
H 1.903416901078879 0.09601551269316394 -10.291945622563683
O -0.3336500537511015 -0.18714759363620043 8.793953352448101
H -0.07069261219228473 -0.22047383697855075 9.725999543542473
H -1.2873366776901467 -0.3576130556357834 8.813582256773467
O 0.5357767066296022 -0.08911085246713596 -13.308970787067727
H -0.034263282138716766 0.5790763152422824 -13.718296668259573
H 1.2651587399540039 0.42504258447655185 -12.931333345806198
O 1.939810443607037 3.83542610302663 -3.65448502051834
H 1.6685263993401542 3.444351933435962 -2.8104273695814066
H 2.442548368993576 3.129854260756733 -4.088518311953343
O -2.1585986999503346 0.08020981366523056 -9.985002461829735
H -1.2473785541326858 -0.11835277008064715 -10.248095797154342
H -2.074884714587632 0.8688149078950843 -9.428175811686788
O 10.818919231304532 -1.351070574117829 -14.569835158318538
H 10.95226841196726 -1.7216569336217886 -15.455188818200385
H 10.76684618225338 -0.39543228021566956 -14.721511765250145
O -1.992483700005366 -0.5427376269889634 -12.56410806724621
H -2.1279280244465113 -0.6686739031486251 -13.515297977949492
H -1.301230939027567 -1.1834993249709442 -12.339261428090055
O 4.5485431615766085 -2.126140674898265 -13.162646030716447
H 4.901853459496993 -1.3437107942551105 -13.612026350890961
H 5.083514654157747 -2.1952485850756087 -12.357666811620433
C -7.646098044142462 0.4062242468748909 -10.984508393723692
O -8.797360818572493 0.2923426458267524 -11.291824619221762
O -6.494835269712432 0.5201058479230294 -10.677192168225622
C -10.232447762498044 10.888523972556538 10.314737396141378
O -9.085060016550589 10.874525226179435 10.733164085239347
O -10.593450548258952 10.46508706315457 9.210649701920953
O -11.210152854405845 11.328299842019737 10.930641871117366