104

C -5.0710522388059704 1.0783507462686561 0.47044029850746183
C -3.8153522388059704 0.1782507462686569 0.19534029850746193
C -4.11845223880597 -1.3219492537313435 0.5608402985074619
C -2.96945223880597 -2.3874492537313436 0.7034402985074619
C -2.52015223880597 0.7359507462686565 0.7384402985074618
C -2.20305223880597 0.7852507462686571 2.097440298507462
C -1.5755522388059702 1.205650746268656 -0.18965970149253808
C -0.9533522388059701 1.2695507462686564 2.508640298507462
H -2.91125223880597 0.4298507462686567 2.840840298507462
C -0.32655223880597006 1.6562507462686575 0.21554029850746192
H -1.7850522388059702 1.178550746268657 -1.2573597014925382
C 0.004447761194029898 1.6956507462686563 1.569740298507462
H -0.7158522388059702 1.2676507462686573 3.5705402985074617
H 0.3943477611940298 1.9193507462686572 -0.5551597014925382
C -1.76045223880597 -2.1592492537313435 -0.1734597014925381
C -0.5287522388059701 -1.936549253731343 0.464840298507462
C -1.8068522388059702 -2.121249253731343 -1.5681597014925381
C 0.6114477611940299 -1.614449253731343 -0.2582597014925381
H -0.4544522388059702 -1.954049253731343 1.5506402985074619
C -0.6479522388059701 -1.8270492537313432 -2.2998597014925384
H -2.74345223880597 -2.290549253731343 -2.092259701492538
C 0.5698477611940298 -1.5506492537313434 -1.6506597014925382
H 1.5072477611940298 -1.351949253731343 0.2991402985074618
H -0.7173522388059701 -1.7640492537313435 -3.3840597014925375
C 1.7791477611940298 -1.082849253731343 -2.4255597014925376
H 1.4739477611940297 -0.9102492537313429 -3.464259701492538
H 2.1252477611940295 -0.1337492537313434 -2.0010597014925384
C 1.3965477611940298 2.0964507462686566 1.997440298507462
H 1.51704776119403 1.8448507462686567 3.057640298507462
H 2.1256477611940294 1.5207507462686571 1.4165402985074618
C 3.94864776119403 -1.4275492537313434 -3.522959701492538
H 4.81734776119403 -2.087049253731343 -3.615159701492538
H 3.4305477611940303 -1.3641492537313429 -4.484459701492538
H 4.26984776119403 -0.441449253731343 -3.176459701492538
C 2.60904776119403 -3.4296492537313434 -2.8992597014925376
H 1.9825477611940296 -3.869549253731343 -2.119359701492538
H 2.06294776119403 -3.373349253731343 -3.845759701492538
H 3.5215477611940305 -4.019849253731343 -3.0234597014925377
C 3.7281477611940304 -2.060049253731343 -1.156659701492538
H 3.9048477611940298 -1.032549253731343 -0.8295597014925382
H 3.12924776119403 -2.623249253731343 -0.4404597014925382
H 4.68244776119403 -2.5769492537313434 -1.3005597014925383
C 3.1110477611940297 3.755250746268656 2.588740298507462
H 3.40124776119403 4.809350746268656 2.534540298507462
H 2.9823477611940303 3.461750746268656 3.634840298507462
H 3.86514776119403 3.1392507462686563 2.091540298507462
C 1.99744776119403 3.9574507462686572 0.40494029850746194
H 2.67914776119403 3.230350746268657 -0.04295970149253803
H 1.03214776119403 3.981150746268657 -0.10175970149253821
H 2.4399477611940297 4.958250746268657 0.368240298507462
C 0.7418477611940297 4.4992507462686575 2.475440298507462
H -0.18475223880597014 4.424250746268656 1.901240298507462
H 0.57844776119403 4.189650746268656 3.511940298507462
H 1.1210477611940297 5.524350746268658 2.4432402985074617
N 3.00114776119403 -2.025349253731343 -2.490159701492538
N 1.7831477611940298 3.586450746268657 1.862540298507462
C -3.55075223880597 -3.8435492537313434 0.6444402985074619
H -2.62515223880597 -2.2736492537313433 1.7424402985074618
H -4.67195223880597 -1.3478492537313436 1.5102402985074619
H -4.83415223880597 -1.6757492537313432 -0.1945597014925382
H -3.7169522388059697 0.17335074626865676 -0.900559701492538
H -3.9132522388059705 -4.043149253731343 -0.34225970149253815
H -4.35435223880597 -3.9354492537313432 1.3449402985074619
H -2.78115223880597 -4.545049253731343 0.8904402985074619
H -5.24235223880597 1.138950746268657 1.5249402985074618
H -5.92805223880597 0.6501507462686567 -0.006059701492538094
H -4.89895223880597 2.059650746268657 0.08004029850746197
O 5.5970662795953805 2.4684956572653265 -8.222858661895282
H 5.6726406350094205 2.3068702822754807 -9.175294020259903
H 5.481185022764073 1.5842442216308905 -7.843869378150168
O 12.174441256945832 2.9776832514376603 12.968346490047683
H 12.828287031296329 2.3671442926765107 12.595928391536276
H 12.140559621361831 3.703757614926514 12.327542309541338
O 6.620643213117291 12.247809845136869 6.839965593617006
H 6.683711110206379 13.152095939819704 6.497538292982212
H 6.152257467006706 11.765438913817 6.142186959838333
O 7.80901641112351 0.07502460111747328 -7.931789268249466
H 7.3994744821682366 -0.7058277262574646 -8.333675331905246
H 8.708694889231243 -0.21563371403966497 -7.71951980704563
O -3.533909769973268 -5.282168032655408 7.737679041862026
H -2.6526877876069066 -5.6402822552832745 7.552829432054647
H -3.3652979537797774 -4.54947308402944 8.348981022881164
O -1.9382833637331838 1.654791883473804 8.368975824918122
H -2.680653726527402 1.6231640062632413 8.99095112887153
H -2.3335848175728264 1.4063493480610676 7.519873350837427
O 5.661228605642083 7.100034956630297 6.571892811873328
H 4.9871875356640105 7.500497477648385 6.002449432648795
H 6.450836701316873 7.065539477540611 6.011276132254175
O 1.8920812857553941 2.329727781385293 -3.840264279578823
H 1.7134506751213872 2.6495513906041124 -2.943173804302906
H 1.3635616131765347 2.9124021093031347 -4.40605534311962
O 2.027058668239878 -1.6758871045140362 2.7687145115697596
H 1.5503310949088134 -2.4534012174191075 2.441346244996294
H 1.3235704465312623 -1.0619225691689695 3.027777854317755
O -5.795261713994682 -4.582941076403973 6.829614172493974
H -6.649488235236497 -4.15739509158425 6.997468341673414
H -5.676028582856214 -5.175353861818693 7.587105094166366
C 1.7910047799079167 1.7990030735749474 7.05529644294206
O 0.60327538066972 1.939116643068944 7.005443467815959
O 2.9787341791461133 1.6588895040809508 7.105149418068161
C 3.3510597791987484 -6.059207536197114 3.4506739969057687
O 3.02352847094539 -6.727837445248491 4.418885123383765
O 4.490974020700983 -6.004849635605485 2.974993216588068
O 2.5932762037458925 -5.33344324854872 2.796702563318563