104

C -5.0710522388059704 1.0783507462686561 0.47044029850746183
C -3.8153522388059704 0.1782507462686569 0.19534029850746193
C -4.11845223880597 -1.3219492537313435 0.5608402985074619
C -2.96945223880597 -2.3874492537313436 0.7034402985074619
C -2.52015223880597 0.7359507462686565 0.7384402985074618
C -2.20305223880597 0.7852507462686571 2.097440298507462
C -1.5755522388059702 1.205650746268656 -0.18965970149253808
C -0.9533522388059701 1.2695507462686564 2.508640298507462
H -2.91125223880597 0.4298507462686567 2.840840298507462
C -0.32655223880597006 1.6562507462686575 0.21554029850746192
H -1.7850522388059702 1.178550746268657 -1.2573597014925382
C 0.004447761194029898 1.6956507462686563 1.569740298507462
H -0.7158522388059702 1.2676507462686573 3.5705402985074617
H 0.3943477611940298 1.9193507462686572 -0.5551597014925382
C -1.76045223880597 -2.1592492537313435 -0.1734597014925381
C -0.5287522388059701 -1.936549253731343 0.464840298507462
C -1.8068522388059702 -2.121249253731343 -1.5681597014925381
C 0.6114477611940299 -1.614449253731343 -0.2582597014925381
H -0.4544522388059702 -1.954049253731343 1.5506402985074619
C -0.6479522388059701 -1.8270492537313432 -2.2998597014925384
H -2.74345223880597 -2.290549253731343 -2.092259701492538
C 0.5698477611940298 -1.5506492537313434 -1.6506597014925382
H 1.5072477611940298 -1.351949253731343 0.2991402985074618
H -0.7173522388059701 -1.7640492537313435 -3.3840597014925375
C 1.7791477611940298 -1.082849253731343 -2.4255597014925376
H 1.4739477611940297 -0.9102492537313429 -3.464259701492538
H 2.1252477611940295 -0.1337492537313434 -2.0010597014925384
C 1.3965477611940298 2.0964507462686566 1.997440298507462
H 1.51704776119403 1.8448507462686567 3.057640298507462
H 2.1256477611940294 1.5207507462686571 1.4165402985074618
C 3.94864776119403 -1.4275492537313434 -3.522959701492538
H 4.81734776119403 -2.087049253731343 -3.615159701492538
H 3.4305477611940303 -1.3641492537313429 -4.484459701492538
H 4.26984776119403 -0.441449253731343 -3.176459701492538
C 2.60904776119403 -3.4296492537313434 -2.8992597014925376
H 1.9825477611940296 -3.869549253731343 -2.119359701492538
H 2.06294776119403 -3.373349253731343 -3.845759701492538
H 3.5215477611940305 -4.019849253731343 -3.0234597014925377
C 3.7281477611940304 -2.060049253731343 -1.156659701492538
H 3.9048477611940298 -1.032549253731343 -0.8295597014925382
H 3.12924776119403 -2.623249253731343 -0.4404597014925382
H 4.68244776119403 -2.5769492537313434 -1.3005597014925383
C 3.1110477611940297 3.755250746268656 2.588740298507462
H 3.40124776119403 4.809350746268656 2.534540298507462
H 2.9823477611940303 3.461750746268656 3.634840298507462
H 3.86514776119403 3.1392507462686563 2.091540298507462
C 1.99744776119403 3.9574507462686572 0.40494029850746194
H 2.67914776119403 3.230350746268657 -0.04295970149253803
H 1.03214776119403 3.981150746268657 -0.10175970149253821
H 2.4399477611940297 4.958250746268657 0.368240298507462
C 0.7418477611940297 4.4992507462686575 2.475440298507462
H -0.18475223880597014 4.424250746268656 1.901240298507462
H 0.57844776119403 4.189650746268656 3.511940298507462
H 1.1210477611940297 5.524350746268658 2.4432402985074617
N 3.00114776119403 -2.025349253731343 -2.490159701492538
N 1.7831477611940298 3.586450746268657 1.862540298507462
C -3.55075223880597 -3.8435492537313434 0.6444402985074619
H -2.62515223880597 -2.2736492537313433 1.7424402985074618
H -4.67195223880597 -1.3478492537313436 1.5102402985074619
H -4.83415223880597 -1.6757492537313432 -0.1945597014925382
H -3.7169522388059697 0.17335074626865676 -0.900559701492538
H -3.9132522388059705 -4.043149253731343 -0.34225970149253815
H -4.35435223880597 -3.9354492537313432 1.3449402985074619
H -2.78115223880597 -4.545049253731343 0.8904402985074619
H -5.24235223880597 1.138950746268657 1.5249402985074618
H -5.92805223880597 0.6501507462686567 -0.006059701492538094
H -4.89895223880597 2.059650746268657 0.08004029850746197
O 12.899319342297337 5.578776941154274 -13.491266773751363
H 12.678038109644028 6.113861041831687 -14.2682397322111
H 12.148792555335914 4.972194390141495 -13.40335150112942
O 7.512171285946852 4.180118712763559 9.71588465498427
H 7.7213006958075585 4.819011990360565 9.017996679251297
H 8.361961688891085 4.027499352201657 10.155800040195514
O -1.2329209196914166 -9.332093295270637 1.5485557469935778
H -1.1787467987384315 -8.395295310062584 1.3068078278110051
H -2.069051405943994 -9.400709911569374 2.0334676093219186
O 2.8520420214700906 2.6379849845485492 5.677586978732903
H 3.5509808650365846 2.4800860960410582 6.329905758825912
H 2.0601962844693333 2.2571841933112173 6.086161366680495
O 8.691122167092004 9.4578645248297 8.739112992550083
H 8.554168815973137 9.3505475381822 9.69236752356172
H 9.584202445712561 9.112442926196039 8.590608853091302
O 5.940910489891414 0.12552684134931041 5.726133307631329
H 5.936024614758541 0.08220003690565575 6.694155142685109
H 6.076372919110278 1.0657011214902699 5.5346021155723015
O 3.6779772108267865 7.008895905987475 -7.199013987106107
H 3.8732620735085215 6.704524312476231 -6.300020598715067
H 4.551052419393501 7.106741159064361 -7.607826818285006
O -6.074934443968004 2.334316648668994 6.301565427612263
H -5.630474488320153 3.034555893847405 5.800478903908542
H -5.5436680885867515 2.249968330051712 7.107545182374352
O -1.8179896385529788 2.1941539319224725 -3.235252693980114
H -2.4822071681932063 2.602579051574511 -3.8105537906728393
H -1.0380035958755711 2.7594528866700587 -3.3402327363201834
O 6.673900761874305 -12.5653557558834 6.938765836285152
H 7.0011909156436385 -12.315449266613363 6.061614048527542
H 6.762577947384099 -11.75427948476801 7.461502465481553
C -9.71545112666338 3.7869367482872334 -11.18066834092224
O -8.709203066538926 3.6872612342628943 -11.821252364060314
O -10.721699186787834 3.8866122623115724 -10.540084317784167
C -5.62449513313367 -7.9627290856108575 6.316922761548311
O -5.044552258464425 -7.1606967584226995 5.6012511141669705
O -6.095640461715022 -7.71196168091529 7.432166794125136
O -5.829990677198502 -9.149270034241708 6.036671904294138