104

C -5.0710522388059704 1.0783507462686561 0.47044029850746183
C -3.8153522388059704 0.1782507462686569 0.19534029850746193
C -4.11845223880597 -1.3219492537313435 0.5608402985074619
C -2.96945223880597 -2.3874492537313436 0.7034402985074619
C -2.52015223880597 0.7359507462686565 0.7384402985074618
C -2.20305223880597 0.7852507462686571 2.097440298507462
C -1.5755522388059702 1.205650746268656 -0.18965970149253808
C -0.9533522388059701 1.2695507462686564 2.508640298507462
H -2.91125223880597 0.4298507462686567 2.840840298507462
C -0.32655223880597006 1.6562507462686575 0.21554029850746192
H -1.7850522388059702 1.178550746268657 -1.2573597014925382
C 0.004447761194029898 1.6956507462686563 1.569740298507462
H -0.7158522388059702 1.2676507462686573 3.5705402985074617
H 0.3943477611940298 1.9193507462686572 -0.5551597014925382
C -1.76045223880597 -2.1592492537313435 -0.1734597014925381
C -0.5287522388059701 -1.936549253731343 0.464840298507462
C -1.8068522388059702 -2.121249253731343 -1.5681597014925381
C 0.6114477611940299 -1.614449253731343 -0.2582597014925381
H -0.4544522388059702 -1.954049253731343 1.5506402985074619
C -0.6479522388059701 -1.8270492537313432 -2.2998597014925384
H -2.74345223880597 -2.290549253731343 -2.092259701492538
C 0.5698477611940298 -1.5506492537313434 -1.6506597014925382
H 1.5072477611940298 -1.351949253731343 0.2991402985074618
H -0.7173522388059701 -1.7640492537313435 -3.3840597014925375
C 1.7791477611940298 -1.082849253731343 -2.4255597014925376
H 1.4739477611940297 -0.9102492537313429 -3.464259701492538
H 2.1252477611940295 -0.1337492537313434 -2.0010597014925384
C 1.3965477611940298 2.0964507462686566 1.997440298507462
H 1.51704776119403 1.8448507462686567 3.057640298507462
H 2.1256477611940294 1.5207507462686571 1.4165402985074618
C 3.94864776119403 -1.4275492537313434 -3.522959701492538
H 4.81734776119403 -2.087049253731343 -3.615159701492538
H 3.4305477611940303 -1.3641492537313429 -4.484459701492538
H 4.26984776119403 -0.441449253731343 -3.176459701492538
C 2.60904776119403 -3.4296492537313434 -2.8992597014925376
H 1.9825477611940296 -3.869549253731343 -2.119359701492538
H 2.06294776119403 -3.373349253731343 -3.845759701492538
H 3.5215477611940305 -4.019849253731343 -3.0234597014925377
C 3.7281477611940304 -2.060049253731343 -1.156659701492538
H 3.9048477611940298 -1.032549253731343 -0.8295597014925382
H 3.12924776119403 -2.623249253731343 -0.4404597014925382
H 4.68244776119403 -2.5769492537313434 -1.3005597014925383
C 3.1110477611940297 3.755250746268656 2.588740298507462
H 3.40124776119403 4.809350746268656 2.534540298507462
H 2.9823477611940303 3.461750746268656 3.634840298507462
H 3.86514776119403 3.1392507462686563 2.091540298507462
C 1.99744776119403 3.9574507462686572 0.40494029850746194
H 2.67914776119403 3.230350746268657 -0.04295970149253803
H 1.03214776119403 3.981150746268657 -0.10175970149253821
H 2.4399477611940297 4.958250746268657 0.368240298507462
C 0.7418477611940297 4.4992507462686575 2.475440298507462
H -0.18475223880597014 4.424250746268656 1.901240298507462
H 0.57844776119403 4.189650746268656 3.511940298507462
H 1.1210477611940297 5.524350746268658 2.4432402985074617
N 3.00114776119403 -2.025349253731343 -2.490159701492538
N 1.7831477611940298 3.586450746268657 1.862540298507462
C -3.55075223880597 -3.8435492537313434 0.6444402985074619
H -2.62515223880597 -2.2736492537313433 1.7424402985074618
H -4.67195223880597 -1.3478492537313436 1.5102402985074619
H -4.83415223880597 -1.6757492537313432 -0.1945597014925382
H -3.7169522388059697 0.17335074626865676 -0.900559701492538
H -3.9132522388059705 -4.043149253731343 -0.34225970149253815
H -4.35435223880597 -3.9354492537313432 1.3449402985074619
H -2.78115223880597 -4.545049253731343 0.8904402985074619
H -5.24235223880597 1.138950746268657 1.5249402985074618
H -5.92805223880597 0.6501507462686567 -0.006059701492538094
H -4.89895223880597 2.059650746268657 0.08004029850746197
O -7.39176023245495 -3.6428011193657834 -8.88783972646672
H -6.5559980246610055 -4.1095481995311784 -9.038226069199265
H -7.1518304046580035 -2.7062427401124576 -8.95306260806291
O -7.305981807453674 -8.430020445753685 10.139067986110925
H -7.8903710040297055 -8.017898470558226 9.485147424126357
H -7.784513118350246 -8.331176650415282 10.975847307625688
O 4.124591495363719 5.695364104523812 -8.388557500948949
H 4.291206572475148 6.204365642202571 -9.196099578874188
H 3.6742809446601923 4.897300094503986 -8.703638741482502
O 1.57789135854327 -0.7514813839452534 13.669307312973986
H 2.2514179438970405 -0.08383142186256265 13.868236506036926
H 1.3694760095753309 -1.1382683367368693 14.532974401477855
O -3.3557052265904543 2.950055220677926 3.9752597627631894
H -2.4889769163592055 2.516786430134517 3.970011116772302
H -3.9833333911040776 2.219261765044281 3.8704468026280257
O -1.4034346753825178 -9.58497070952085 1.6096554505948286
H -1.12502625576135 -10.240573861802543 0.9526618315220469
H -0.9062266019293935 -8.788345599743534 1.3706271876941605
O -7.874609416756878 -11.117947146955864 7.777654958937803
H -8.228617218457702 -10.819720713111861 8.628952102943138
H -7.930513817941802 -12.084102231620587 7.826450395247496
O -11.911245409951087 -2.7470794935720657 -12.336196133054107
H -11.754721582949175 -3.69951342390294 -12.250538343944422
H -12.2924557901058 -2.6512537630290804 -13.221892480414873
O -7.86193748988158 0.9965418257678662 8.69598806381676
H -8.755190868673449 1.23277401422874 8.403994722605187
H -7.910934803676172 1.045828305253417 9.66249313389184
O -4.306365072667907 -6.6280058812311555 -4.746964501333665
H -5.142260565668442 -7.116590208981043 -4.786098072070111
H -4.570563040987288 -5.732590978043652 -4.487361864625897
C 5.680459792673575 -0.10039954502373183 -6.998906892645548
O 5.382615679331484 -0.32646234777191085 -5.861804104564761
O 5.9783039060156655 0.1256632577244471 -8.136009680726335
C -4.341280889012816 -5.98421787136727 5.879416155293292
O -3.622786940021078 -6.539996249127721 5.062928348479119
O -4.887504140366785 -4.88689823201525 5.717671811118137
O -4.6333517162296705 -6.433099318155083 6.993798703172853