104

C -5.0710522388059704 1.0783507462686561 0.47044029850746183
C -3.8153522388059704 0.1782507462686569 0.19534029850746193
C -4.11845223880597 -1.3219492537313435 0.5608402985074619
C -2.96945223880597 -2.3874492537313436 0.7034402985074619
C -2.52015223880597 0.7359507462686565 0.7384402985074618
C -2.20305223880597 0.7852507462686571 2.097440298507462
C -1.5755522388059702 1.205650746268656 -0.18965970149253808
C -0.9533522388059701 1.2695507462686564 2.508640298507462
H -2.91125223880597 0.4298507462686567 2.840840298507462
C -0.32655223880597006 1.6562507462686575 0.21554029850746192
H -1.7850522388059702 1.178550746268657 -1.2573597014925382
C 0.004447761194029898 1.6956507462686563 1.569740298507462
H -0.7158522388059702 1.2676507462686573 3.5705402985074617
H 0.3943477611940298 1.9193507462686572 -0.5551597014925382
C -1.76045223880597 -2.1592492537313435 -0.1734597014925381
C -0.5287522388059701 -1.936549253731343 0.464840298507462
C -1.8068522388059702 -2.121249253731343 -1.5681597014925381
C 0.6114477611940299 -1.614449253731343 -0.2582597014925381
H -0.4544522388059702 -1.954049253731343 1.5506402985074619
C -0.6479522388059701 -1.8270492537313432 -2.2998597014925384
H -2.74345223880597 -2.290549253731343 -2.092259701492538
C 0.5698477611940298 -1.5506492537313434 -1.6506597014925382
H 1.5072477611940298 -1.351949253731343 0.2991402985074618
H -0.7173522388059701 -1.7640492537313435 -3.3840597014925375
C 1.7791477611940298 -1.082849253731343 -2.4255597014925376
H 1.4739477611940297 -0.9102492537313429 -3.464259701492538
H 2.1252477611940295 -0.1337492537313434 -2.0010597014925384
C 1.3965477611940298 2.0964507462686566 1.997440298507462
H 1.51704776119403 1.8448507462686567 3.057640298507462
H 2.1256477611940294 1.5207507462686571 1.4165402985074618
C 3.94864776119403 -1.4275492537313434 -3.522959701492538
H 4.81734776119403 -2.087049253731343 -3.615159701492538
H 3.4305477611940303 -1.3641492537313429 -4.484459701492538
H 4.26984776119403 -0.441449253731343 -3.176459701492538
C 2.60904776119403 -3.4296492537313434 -2.8992597014925376
H 1.9825477611940296 -3.869549253731343 -2.119359701492538
H 2.06294776119403 -3.373349253731343 -3.845759701492538
H 3.5215477611940305 -4.019849253731343 -3.0234597014925377
C 3.7281477611940304 -2.060049253731343 -1.156659701492538
H 3.9048477611940298 -1.032549253731343 -0.8295597014925382
H 3.12924776119403 -2.623249253731343 -0.4404597014925382
H 4.68244776119403 -2.5769492537313434 -1.3005597014925383
C 3.1110477611940297 3.755250746268656 2.588740298507462
H 3.40124776119403 4.809350746268656 2.534540298507462
H 2.9823477611940303 3.461750746268656 3.634840298507462
H 3.86514776119403 3.1392507462686563 2.091540298507462
C 1.99744776119403 3.9574507462686572 0.40494029850746194
H 2.67914776119403 3.230350746268657 -0.04295970149253803
H 1.03214776119403 3.981150746268657 -0.10175970149253821
H 2.4399477611940297 4.958250746268657 0.368240298507462
C 0.7418477611940297 4.4992507462686575 2.475440298507462
H -0.18475223880597014 4.424250746268656 1.901240298507462
H 0.57844776119403 4.189650746268656 3.511940298507462
H 1.1210477611940297 5.524350746268658 2.4432402985074617
N 3.00114776119403 -2.025349253731343 -2.490159701492538
N 1.7831477611940298 3.586450746268657 1.862540298507462
C -3.55075223880597 -3.8435492537313434 0.6444402985074619
H -2.62515223880597 -2.2736492537313433 1.7424402985074618
H -4.67195223880597 -1.3478492537313436 1.5102402985074619
H -4.83415223880597 -1.6757492537313432 -0.1945597014925382
H -3.7169522388059697 0.17335074626865676 -0.900559701492538
H -3.9132522388059705 -4.043149253731343 -0.34225970149253815
H -4.35435223880597 -3.9354492537313432 1.3449402985074619
H -2.78115223880597 -4.545049253731343 0.8904402985074619
H -5.24235223880597 1.138950746268657 1.5249402985074618
H -5.92805223880597 0.6501507462686567 -0.006059701492538094
H -4.89895223880597 2.059650746268657 0.08004029850746197
O 1.7294668172840235 -9.328081193861854 1.6168954691845716
H 1.9424503562708209 -10.084533445384912 1.0499868696851855
H 0.8472695382497063 -9.534272989344228 1.960661157757764
O -0.6770996489359348 0.8309120793009815 -3.793147678417311
H -0.15131010876542395 0.38229789674330095 -3.1139878801699563
H -0.7800377742430575 0.16361049700773184 -4.488183134295053
O -6.576093648776556 -4.398476386102503 10.282354490775749
H -7.322767978400154 -4.2664120984755 10.8856817869548
H -6.59438736170619 -3.6150959660968063 9.712317297323475
O 7.758179021241048 -4.111182139955172 -9.49990221019183
H 7.601026738401699 -4.232646895613129 -10.448330821122214
H 7.048650014557864 -3.5136618723200983 -9.219723583704223
O -10.739577261235025 5.409209473656338 -10.694007092684176
H -10.137942371644133 4.869978559193561 -10.15899976804778
H -10.197200439994619 6.164518783288907 -10.96658217383343
O 4.4933961628797565 -8.6680755251787 -4.530786735452584
H 3.905673040075766 -9.417611660340748 -4.352616957129022
H 4.065667016551459 -7.923400071962599 -4.081934653961745
O -3.092165707653597 -9.372116889432657 2.730142374015552
H -3.5006049348335857 -9.589595037622171 3.581522435833231
H -2.403851124313774 -8.72931495584152 2.9581569630953295
O 0.37485446701620506 -13.596723477087753 0.4861353215940018
H 0.9023694080323841 -14.406896992623368 0.5518180333936954
H -0.3511837458164034 -13.83773209805707 -0.10862959198555622
O -3.4161010735925794 -4.498142708879033 3.476922158916056
H -3.8498919159995193 -3.6910841407434196 3.7922780365254205
H -3.6654998445037057 -5.1686192390438395 4.130545460111921
O 3.498299765902866 0.7029741505968561 4.275278349490014
H 3.360331858911725 -0.008881081389644052 3.632476403138005
H 4.256599877089575 1.1927147225826982 3.923004226362577
C 1.8087911531818475 1.24218314496711 8.243313311075578
O 2.327509321601821 0.9608853263021582 9.284764825196792
O 1.2900729847618742 1.5234809636320616 7.201861796954365
C 3.5030877967504903 -2.353673812782366 -10.841684879235164
O 3.871705336249542 -3.5151795345882837 -10.759216301062752
O 2.72144966952929 -1.912869628435303 -11.692193534826778
O 3.854652929833933 -1.4392991122704608 -10.087384376342726