104

C -5.0710522388059704 1.0783507462686561 0.47044029850746183
C -3.8153522388059704 0.1782507462686569 0.19534029850746193
C -4.11845223880597 -1.3219492537313435 0.5608402985074619
C -2.96945223880597 -2.3874492537313436 0.7034402985074619
C -2.52015223880597 0.7359507462686565 0.7384402985074618
C -2.20305223880597 0.7852507462686571 2.097440298507462
C -1.5755522388059702 1.205650746268656 -0.18965970149253808
C -0.9533522388059701 1.2695507462686564 2.508640298507462
H -2.91125223880597 0.4298507462686567 2.840840298507462
C -0.32655223880597006 1.6562507462686575 0.21554029850746192
H -1.7850522388059702 1.178550746268657 -1.2573597014925382
C 0.004447761194029898 1.6956507462686563 1.569740298507462
H -0.7158522388059702 1.2676507462686573 3.5705402985074617
H 0.3943477611940298 1.9193507462686572 -0.5551597014925382
C -1.76045223880597 -2.1592492537313435 -0.1734597014925381
C -0.5287522388059701 -1.936549253731343 0.464840298507462
C -1.8068522388059702 -2.121249253731343 -1.5681597014925381
C 0.6114477611940299 -1.614449253731343 -0.2582597014925381
H -0.4544522388059702 -1.954049253731343 1.5506402985074619
C -0.6479522388059701 -1.8270492537313432 -2.2998597014925384
H -2.74345223880597 -2.290549253731343 -2.092259701492538
C 0.5698477611940298 -1.5506492537313434 -1.6506597014925382
H 1.5072477611940298 -1.351949253731343 0.2991402985074618
H -0.7173522388059701 -1.7640492537313435 -3.3840597014925375
C 1.7791477611940298 -1.082849253731343 -2.4255597014925376
H 1.4739477611940297 -0.9102492537313429 -3.464259701492538
H 2.1252477611940295 -0.1337492537313434 -2.0010597014925384
C 1.3965477611940298 2.0964507462686566 1.997440298507462
H 1.51704776119403 1.8448507462686567 3.057640298507462
H 2.1256477611940294 1.5207507462686571 1.4165402985074618
C 3.94864776119403 -1.4275492537313434 -3.522959701492538
H 4.81734776119403 -2.087049253731343 -3.615159701492538
H 3.4305477611940303 -1.3641492537313429 -4.484459701492538
H 4.26984776119403 -0.441449253731343 -3.176459701492538
C 2.60904776119403 -3.4296492537313434 -2.8992597014925376
H 1.9825477611940296 -3.869549253731343 -2.119359701492538
H 2.06294776119403 -3.373349253731343 -3.845759701492538
H 3.5215477611940305 -4.019849253731343 -3.0234597014925377
C 3.7281477611940304 -2.060049253731343 -1.156659701492538
H 3.9048477611940298 -1.032549253731343 -0.8295597014925382
H 3.12924776119403 -2.623249253731343 -0.4404597014925382
H 4.68244776119403 -2.5769492537313434 -1.3005597014925383
C 3.1110477611940297 3.755250746268656 2.588740298507462
H 3.40124776119403 4.809350746268656 2.534540298507462
H 2.9823477611940303 3.461750746268656 3.634840298507462
H 3.86514776119403 3.1392507462686563 2.091540298507462
C 1.99744776119403 3.9574507462686572 0.40494029850746194
H 2.67914776119403 3.230350746268657 -0.04295970149253803
H 1.03214776119403 3.981150746268657 -0.10175970149253821
H 2.4399477611940297 4.958250746268657 0.368240298507462
C 0.7418477611940297 4.4992507462686575 2.475440298507462
H -0.18475223880597014 4.424250746268656 1.901240298507462
H 0.57844776119403 4.189650746268656 3.511940298507462
H 1.1210477611940297 5.524350746268658 2.4432402985074617
N 3.00114776119403 -2.025349253731343 -2.490159701492538
N 1.7831477611940298 3.586450746268657 1.862540298507462
C -3.55075223880597 -3.8435492537313434 0.6444402985074619
H -2.62515223880597 -2.2736492537313433 1.7424402985074618
H -4.67195223880597 -1.3478492537313436 1.5102402985074619
H -4.83415223880597 -1.6757492537313432 -0.1945597014925382
H -3.7169522388059697 0.17335074626865676 -0.900559701492538
H -3.9132522388059705 -4.043149253731343 -0.34225970149253815
H -4.35435223880597 -3.9354492537313432 1.3449402985074619
H -2.78115223880597 -4.545049253731343 0.8904402985074619
H -5.24235223880597 1.138950746268657 1.5249402985074618
H -5.92805223880597 0.6501507462686567 -0.006059701492538094
H -4.89895223880597 2.059650746268657 0.08004029850746197
O -4.176945889107369 3.272575397418219 -5.946317020504871
H -4.020545583641242 3.9355549587918635 -5.257140408488101
H -4.408036747133165 2.4715683935565416 -5.452407373503075
O -3.7824899319549967 6.54885859616018 -4.173107474391174
H -4.2059190035523955 6.85244250665721 -4.990121542515767
H -4.413858335187062 5.912805149180881 -3.804635092405844
O -0.42058250451892887 -9.042770920393135 -0.6175206014948069
H -1.107966792942962 -9.700319232733433 -0.43285762776641584
H 0.4040905143812344 -9.493823442400043 -0.3820891282604546
O 4.702515187490582 -3.0848629441259834 -7.94672856207945
H 4.178014999334724 -3.684798742241543 -8.498039679021524
H 5.103769142172664 -2.4734389340339002 -8.582431234745615
O 0.03343639011947738 -0.08898141025694305 -13.409389593924413
H -0.5264483328757986 -0.5822480739563419 -14.027600279968716
H -0.23111475752230684 0.8340902000855251 -13.53944126350684
O -8.530466038680576 1.652270099983291 -8.530059241127258
H -8.518346536351064 1.6380805555318831 -9.498882822276865
H -8.86099066231581 2.5369294347226914 -8.313049382067287
O 3.1329176909561585 -5.070687229480701 6.7546255099658365
H 3.2383436363616056 -5.496460519554468 5.8905827839417535
H 2.899675812363557 -4.155535357381558 6.5376987449873605
O 7.564446367978575 5.078263098843861 9.12392321373249
H 7.974131675007673 5.86442991837943 9.515161041614466
H 7.3234740521925525 5.360762382772864 8.228887772029582
O 5.578637207282727 0.4397918336973242 -10.341496053031003
H 5.201330414058406 0.02915272779262401 -9.549042606203638
H 6.366197188269455 0.8998641332830504 -10.01431918984828
O 13.09595791492756 -2.0300726046962625 -13.561843188449979
H 12.92354466431186 -2.083100181893676 -14.513908892048581
H 13.95475724974816 -1.5850197639852124 -13.503932776720148
C 1.0192942444506616 7.9000103859614486 -1.0237095170192374
O 2.00088160145617 7.226639553231049 -1.1497104673922782
O 0.03770688744515338 8.573381218691848 -0.8977085666461967
C -3.1052235645917428 3.443373834900167 3.410346839992651
O -2.4589642946931614 3.5822664566106477 4.4373976149324985
O -2.86629986527838 4.0074270668521645 2.3363864675715247
O -4.098172658848092 2.7172599259697803 3.2860123239750507