104

C -5.0710522388059704 1.0783507462686561 0.47044029850746183
C -3.8153522388059704 0.1782507462686569 0.19534029850746193
C -4.11845223880597 -1.3219492537313435 0.5608402985074619
C -2.96945223880597 -2.3874492537313436 0.7034402985074619
C -2.52015223880597 0.7359507462686565 0.7384402985074618
C -2.20305223880597 0.7852507462686571 2.097440298507462
C -1.5755522388059702 1.205650746268656 -0.18965970149253808
C -0.9533522388059701 1.2695507462686564 2.508640298507462
H -2.91125223880597 0.4298507462686567 2.840840298507462
C -0.32655223880597006 1.6562507462686575 0.21554029850746192
H -1.7850522388059702 1.178550746268657 -1.2573597014925382
C 0.004447761194029898 1.6956507462686563 1.569740298507462
H -0.7158522388059702 1.2676507462686573 3.5705402985074617
H 0.3943477611940298 1.9193507462686572 -0.5551597014925382
C -1.76045223880597 -2.1592492537313435 -0.1734597014925381
C -0.5287522388059701 -1.936549253731343 0.464840298507462
C -1.8068522388059702 -2.121249253731343 -1.5681597014925381
C 0.6114477611940299 -1.614449253731343 -0.2582597014925381
H -0.4544522388059702 -1.954049253731343 1.5506402985074619
C -0.6479522388059701 -1.8270492537313432 -2.2998597014925384
H -2.74345223880597 -2.290549253731343 -2.092259701492538
C 0.5698477611940298 -1.5506492537313434 -1.6506597014925382
H 1.5072477611940298 -1.351949253731343 0.2991402985074618
H -0.7173522388059701 -1.7640492537313435 -3.3840597014925375
C 1.7791477611940298 -1.082849253731343 -2.4255597014925376
H 1.4739477611940297 -0.9102492537313429 -3.464259701492538
H 2.1252477611940295 -0.1337492537313434 -2.0010597014925384
C 1.3965477611940298 2.0964507462686566 1.997440298507462
H 1.51704776119403 1.8448507462686567 3.057640298507462
H 2.1256477611940294 1.5207507462686571 1.4165402985074618
C 3.94864776119403 -1.4275492537313434 -3.522959701492538
H 4.81734776119403 -2.087049253731343 -3.615159701492538
H 3.4305477611940303 -1.3641492537313429 -4.484459701492538
H 4.26984776119403 -0.441449253731343 -3.176459701492538
C 2.60904776119403 -3.4296492537313434 -2.8992597014925376
H 1.9825477611940296 -3.869549253731343 -2.119359701492538
H 2.06294776119403 -3.373349253731343 -3.845759701492538
H 3.5215477611940305 -4.019849253731343 -3.0234597014925377
C 3.7281477611940304 -2.060049253731343 -1.156659701492538
H 3.9048477611940298 -1.032549253731343 -0.8295597014925382
H 3.12924776119403 -2.623249253731343 -0.4404597014925382
H 4.68244776119403 -2.5769492537313434 -1.3005597014925383
C 3.1110477611940297 3.755250746268656 2.588740298507462
H 3.40124776119403 4.809350746268656 2.534540298507462
H 2.9823477611940303 3.461750746268656 3.634840298507462
H 3.86514776119403 3.1392507462686563 2.091540298507462
C 1.99744776119403 3.9574507462686572 0.40494029850746194
H 2.67914776119403 3.230350746268657 -0.04295970149253803
H 1.03214776119403 3.981150746268657 -0.10175970149253821
H 2.4399477611940297 4.958250746268657 0.368240298507462
C 0.7418477611940297 4.4992507462686575 2.475440298507462
H -0.18475223880597014 4.424250746268656 1.901240298507462
H 0.57844776119403 4.189650746268656 3.511940298507462
H 1.1210477611940297 5.524350746268658 2.4432402985074617
N 3.00114776119403 -2.025349253731343 -2.490159701492538
N 1.7831477611940298 3.586450746268657 1.862540298507462
C -3.55075223880597 -3.8435492537313434 0.6444402985074619
H -2.62515223880597 -2.2736492537313433 1.7424402985074618
H -4.67195223880597 -1.3478492537313436 1.5102402985074619
H -4.83415223880597 -1.6757492537313432 -0.1945597014925382
H -3.7169522388059697 0.17335074626865676 -0.900559701492538
H -3.9132522388059705 -4.043149253731343 -0.34225970149253815
H -4.35435223880597 -3.9354492537313432 1.3449402985074619
H -2.78115223880597 -4.545049253731343 0.8904402985074619
H -5.24235223880597 1.138950746268657 1.5249402985074618
H -5.92805223880597 0.6501507462686567 -0.006059701492538094
H -4.89895223880597 2.059650746268657 0.08004029850746197
O -5.218189822835995 3.170671464451828 -5.375175856154252
H -5.382479017239207 2.8176894754885486 -4.4878314286798515
H -4.255433509039668 3.274403464738826 -5.41125766128879
O -5.373969453814741 -9.675009227008498 -6.819742627785271
H -5.278719112807977 -9.88180045021823 -7.761619540890969
H -4.650451290919272 -9.05547874627554 -6.641794894719762
O 11.39144760726728 5.511394498071119 -13.243444152779722
H 11.791448974135367 5.9684707593057595 -13.998459089598475
H 11.002484735866377 6.22568285346776 -12.716697558755303
O 2.855431709105067 10.51370242593147 3.109264836376259
H 2.354957340613362 11.172861161733099 2.605278205205127
H 2.889282817364501 9.744993175060529 2.520280851538773
O -6.602197924933922 -4.104947449622642 -6.623957828594671
H -6.51078130906132 -4.130508589527066 -7.588300603425897
H -7.536762795545554 -3.8911969542314147 -6.4830281559254095
O 0.9620173052654281 -2.8076590898520104 4.783312146812036
H 0.9788798437775525 -2.852724997905891 5.751120018047958
H 1.3586974950853337 -3.6461324095246894 4.50301005352424
O 0.26722991858895306 -9.696051374216038 -0.31942988256933136
H 0.3412803995153495 -9.74733010884456 -1.2842378295460692
H 0.8457776950180613 -10.40571998134596 -0.0022313914896776588
O 4.219814035750798 -3.0254056510304164 7.519066626819477
H 4.459474071630842 -3.8234951522636367 8.013620539070999
H 3.2973102464856834 -2.864053582353802 7.76789229475846
O 4.742061966227913 -7.466529177130457 4.716601476621569
H 4.741204120218631 -8.239809137747086 4.132645379377118
H 3.8179982101440757 -7.174886411483895 4.720153411059735
O 2.23127630489219 4.182607589607775 -5.627010525737952
H 1.4131144155978632 4.077892276491859 -5.118470278554532
H 2.757689075240524 4.801261559122198 -5.098693570191153
C 11.735780808941952 5.433914526050615 11.796808158852551
O 12.810347288707138 4.935470085171258 11.969082002547754
O 10.661214329176765 5.932358966929972 11.624534315157348
C 2.2474793617825712 1.963635394122792 8.150513054708846
O 3.1083221567405586 1.1569793663925738 7.834235907422759
O 2.4620641923125746 3.0954343690435615 8.599529641234005
O 1.028504469452866 1.772985252507516 8.070506056440822