104

C -5.0710522388059704 1.0783507462686561 0.47044029850746183
C -3.8153522388059704 0.1782507462686569 0.19534029850746193
C -4.11845223880597 -1.3219492537313435 0.5608402985074619
C -2.96945223880597 -2.3874492537313436 0.7034402985074619
C -2.52015223880597 0.7359507462686565 0.7384402985074618
C -2.20305223880597 0.7852507462686571 2.097440298507462
C -1.5755522388059702 1.205650746268656 -0.18965970149253808
C -0.9533522388059701 1.2695507462686564 2.508640298507462
H -2.91125223880597 0.4298507462686567 2.840840298507462
C -0.32655223880597006 1.6562507462686575 0.21554029850746192
H -1.7850522388059702 1.178550746268657 -1.2573597014925382
C 0.004447761194029898 1.6956507462686563 1.569740298507462
H -0.7158522388059702 1.2676507462686573 3.5705402985074617
H 0.3943477611940298 1.9193507462686572 -0.5551597014925382
C -1.76045223880597 -2.1592492537313435 -0.1734597014925381
C -0.5287522388059701 -1.936549253731343 0.464840298507462
C -1.8068522388059702 -2.121249253731343 -1.5681597014925381
C 0.6114477611940299 -1.614449253731343 -0.2582597014925381
H -0.4544522388059702 -1.954049253731343 1.5506402985074619
C -0.6479522388059701 -1.8270492537313432 -2.2998597014925384
H -2.74345223880597 -2.290549253731343 -2.092259701492538
C 0.5698477611940298 -1.5506492537313434 -1.6506597014925382
H 1.5072477611940298 -1.351949253731343 0.2991402985074618
H -0.7173522388059701 -1.7640492537313435 -3.3840597014925375
C 1.7791477611940298 -1.082849253731343 -2.4255597014925376
H 1.4739477611940297 -0.9102492537313429 -3.464259701492538
H 2.1252477611940295 -0.1337492537313434 -2.0010597014925384
C 1.3965477611940298 2.0964507462686566 1.997440298507462
H 1.51704776119403 1.8448507462686567 3.057640298507462
H 2.1256477611940294 1.5207507462686571 1.4165402985074618
C 3.94864776119403 -1.4275492537313434 -3.522959701492538
H 4.81734776119403 -2.087049253731343 -3.615159701492538
H 3.4305477611940303 -1.3641492537313429 -4.484459701492538
H 4.26984776119403 -0.441449253731343 -3.176459701492538
C 2.60904776119403 -3.4296492537313434 -2.8992597014925376
H 1.9825477611940296 -3.869549253731343 -2.119359701492538
H 2.06294776119403 -3.373349253731343 -3.845759701492538
H 3.5215477611940305 -4.019849253731343 -3.0234597014925377
C 3.7281477611940304 -2.060049253731343 -1.156659701492538
H 3.9048477611940298 -1.032549253731343 -0.8295597014925382
H 3.12924776119403 -2.623249253731343 -0.4404597014925382
H 4.68244776119403 -2.5769492537313434 -1.3005597014925383
C 3.1110477611940297 3.755250746268656 2.588740298507462
H 3.40124776119403 4.809350746268656 2.534540298507462
H 2.9823477611940303 3.461750746268656 3.634840298507462
H 3.86514776119403 3.1392507462686563 2.091540298507462
C 1.99744776119403 3.9574507462686572 0.40494029850746194
H 2.67914776119403 3.230350746268657 -0.04295970149253803
H 1.03214776119403 3.981150746268657 -0.10175970149253821
H 2.4399477611940297 4.958250746268657 0.368240298507462
C 0.7418477611940297 4.4992507462686575 2.475440298507462
H -0.18475223880597014 4.424250746268656 1.901240298507462
H 0.57844776119403 4.189650746268656 3.511940298507462
H 1.1210477611940297 5.524350746268658 2.4432402985074617
N 3.00114776119403 -2.025349253731343 -2.490159701492538
N 1.7831477611940298 3.586450746268657 1.862540298507462
C -3.55075223880597 -3.8435492537313434 0.6444402985074619
H -2.62515223880597 -2.2736492537313433 1.7424402985074618
H -4.67195223880597 -1.3478492537313436 1.5102402985074619
H -4.83415223880597 -1.6757492537313432 -0.1945597014925382
H -3.7169522388059697 0.17335074626865676 -0.900559701492538
H -3.9132522388059705 -4.043149253731343 -0.34225970149253815
H -4.35435223880597 -3.9354492537313432 1.3449402985074619
H -2.78115223880597 -4.545049253731343 0.8904402985074619
H -5.24235223880597 1.138950746268657 1.5249402985074618
H -5.92805223880597 0.6501507462686567 -0.006059701492538094
H -4.89895223880597 2.059650746268657 0.08004029850746197
O -6.594091261274428 12.170747537165443 -6.155132091386908
H -6.666634108695109 11.617905334375598 -6.947641013104874
H -5.900363068048208 12.809508427998367 -6.378039387286829
O -0.2975168061859223 -9.074344042194543 -0.848535746033819
H -1.0619883061966244 -9.035661382785687 -1.4427195008037106
H -0.6901547864441937 -9.092183000638336 0.03717251988693271
O 7.088007732068575 3.615021357683189 -13.47730262899123
H 7.889951876715723 3.659976279334673 -12.935239901269185
H 6.557652830882052 4.366922705538538 -13.173444132021435
O -4.764571242582664 -0.11145772806289042 -7.277185167657446
H -4.025391238380985 0.3552457381817125 -6.859132356539426
H -5.549556396271329 0.26369214010324216 -6.850543832103428
O 6.299636995602294 3.6065601329450416 6.551184290284092
H 6.499727791883516 4.205887888389295 7.285852427402956
H 5.797597949409941 2.888462073193787 6.96501265685622
O 2.0017910703726938 -0.6370560980069736 3.6790749391105093
H 1.1907667781248994 -0.1258934165194444 3.537937887495974
H 1.709126728917638 -1.5593598657998666 3.6274485170408846
O -8.468260892396332 1.2144437095731302 9.612488734610032
H -7.827732015222231 0.5670089169685266 9.943424232450807
H -9.199966595609993 1.1645684176927016 10.245798424607305
O -0.4578852051552612 0.0058504307887832785 -12.48532996614975
H -0.7419572252952824 0.24635798972771436 -13.37999557874856
H -0.8053118662886498 0.719613673393207 -11.9296333826255
O -2.576252210681808 9.98568182266654 2.686072396247365
H -3.3229178145860314 9.397280235999714 2.4983454518459167
H -1.7974269472211077 9.423210644435608 2.5595049164001384
O -8.895015204056266 6.270696143407062 9.796840413630088
H -9.351195193770755 6.494161026021033 8.971655210101561
H -9.028239461355017 7.050436892132402 10.356498886579836
C -6.992312974450489 2.4440832765516336 -13.21591720516869
O -7.9059841552877534 1.6709606573211488 -13.233371323354225
O -6.078641793613225 3.217205895782118 -13.198463086983155
C -5.43672384891888 0.4256025939788282 6.02716227893861
O -5.92594161617934 0.266551570267922 7.134927708374464
O -5.956015652406011 1.0629915217985024 5.103743174943046
O -4.346630654580433 -0.026222735341495162 5.658110678425102