104

C -5.0710522388059704 1.0783507462686561 0.47044029850746183
C -3.8153522388059704 0.1782507462686569 0.19534029850746193
C -4.11845223880597 -1.3219492537313435 0.5608402985074619
C -2.96945223880597 -2.3874492537313436 0.7034402985074619
C -2.52015223880597 0.7359507462686565 0.7384402985074618
C -2.20305223880597 0.7852507462686571 2.097440298507462
C -1.5755522388059702 1.205650746268656 -0.18965970149253808
C -0.9533522388059701 1.2695507462686564 2.508640298507462
H -2.91125223880597 0.4298507462686567 2.840840298507462
C -0.32655223880597006 1.6562507462686575 0.21554029850746192
H -1.7850522388059702 1.178550746268657 -1.2573597014925382
C 0.004447761194029898 1.6956507462686563 1.569740298507462
H -0.7158522388059702 1.2676507462686573 3.5705402985074617
H 0.3943477611940298 1.9193507462686572 -0.5551597014925382
C -1.76045223880597 -2.1592492537313435 -0.1734597014925381
C -0.5287522388059701 -1.936549253731343 0.464840298507462
C -1.8068522388059702 -2.121249253731343 -1.5681597014925381
C 0.6114477611940299 -1.614449253731343 -0.2582597014925381
H -0.4544522388059702 -1.954049253731343 1.5506402985074619
C -0.6479522388059701 -1.8270492537313432 -2.2998597014925384
H -2.74345223880597 -2.290549253731343 -2.092259701492538
C 0.5698477611940298 -1.5506492537313434 -1.6506597014925382
H 1.5072477611940298 -1.351949253731343 0.2991402985074618
H -0.7173522388059701 -1.7640492537313435 -3.3840597014925375
C 1.7791477611940298 -1.082849253731343 -2.4255597014925376
H 1.4739477611940297 -0.9102492537313429 -3.464259701492538
H 2.1252477611940295 -0.1337492537313434 -2.0010597014925384
C 1.3965477611940298 2.0964507462686566 1.997440298507462
H 1.51704776119403 1.8448507462686567 3.057640298507462
H 2.1256477611940294 1.5207507462686571 1.4165402985074618
C 3.94864776119403 -1.4275492537313434 -3.522959701492538
H 4.81734776119403 -2.087049253731343 -3.615159701492538
H 3.4305477611940303 -1.3641492537313429 -4.484459701492538
H 4.26984776119403 -0.441449253731343 -3.176459701492538
C 2.60904776119403 -3.4296492537313434 -2.8992597014925376
H 1.9825477611940296 -3.869549253731343 -2.119359701492538
H 2.06294776119403 -3.373349253731343 -3.845759701492538
H 3.5215477611940305 -4.019849253731343 -3.0234597014925377
C 3.7281477611940304 -2.060049253731343 -1.156659701492538
H 3.9048477611940298 -1.032549253731343 -0.8295597014925382
H 3.12924776119403 -2.623249253731343 -0.4404597014925382
H 4.68244776119403 -2.5769492537313434 -1.3005597014925383
C 3.1110477611940297 3.755250746268656 2.588740298507462
H 3.40124776119403 4.809350746268656 2.534540298507462
H 2.9823477611940303 3.461750746268656 3.634840298507462
H 3.86514776119403 3.1392507462686563 2.091540298507462
C 1.99744776119403 3.9574507462686572 0.40494029850746194
H 2.67914776119403 3.230350746268657 -0.04295970149253803
H 1.03214776119403 3.981150746268657 -0.10175970149253821
H 2.4399477611940297 4.958250746268657 0.368240298507462
C 0.7418477611940297 4.4992507462686575 2.475440298507462
H -0.18475223880597014 4.424250746268656 1.901240298507462
H 0.57844776119403 4.189650746268656 3.511940298507462
H 1.1210477611940297 5.524350746268658 2.4432402985074617
N 3.00114776119403 -2.025349253731343 -2.490159701492538
N 1.7831477611940298 3.586450746268657 1.862540298507462
C -3.55075223880597 -3.8435492537313434 0.6444402985074619
H -2.62515223880597 -2.2736492537313433 1.7424402985074618
H -4.67195223880597 -1.3478492537313436 1.5102402985074619
H -4.83415223880597 -1.6757492537313432 -0.1945597014925382
H -3.7169522388059697 0.17335074626865676 -0.900559701492538
H -3.9132522388059705 -4.043149253731343 -0.34225970149253815
H -4.35435223880597 -3.9354492537313432 1.3449402985074619
H -2.78115223880597 -4.545049253731343 0.8904402985074619
H -5.24235223880597 1.138950746268657 1.5249402985074618
H -5.92805223880597 0.6501507462686567 -0.006059701492538094
H -4.89895223880597 2.059650746268657 0.08004029850746197
O 2.7620781259581326 -0.3726590658033083 -7.934695027015207
H 2.7446847903148144 -0.5207700791523222 -6.977235912222346
H 2.347313276355594 -1.1676169322143348 -8.302083179335625
O -2.6103047321448716 -8.41084700147332 3.547508671880384
H -2.4949999634913316 -8.53108902857068 2.5929333620460717
H -3.512902585367612 -8.068837085210365 3.6329971321279855
O 0.7036080093610192 6.990203181188136 -0.36031454541334257
H 0.41063009203389134 6.985042028344938 -1.2839511944047026
H 0.060134433682079824 6.424647228224935 0.09251010693107764
O -4.4991522777289195 0.4771781576833839 -6.99568250407774
H -4.016055351917111 1.2166561850919608 -7.394125679638698
H -3.8528473522997486 0.06918913945362581 -6.400034244892916
O 6.704395633076524 12.178587459399143 -6.248819392451402
H 7.104061984303684 12.097400681612667 -7.127820457131883
H 5.762841464080103 12.316479767813279 -6.431640076252984
O -6.752622909458077 -12.944599662208843 6.411118888804828
H -6.879522651636162 -12.76233665801046 7.354328308624052
H -6.095468270180471 -13.656569083690883 6.396652816412917
O 8.769588110358882 4.843922821532232 -9.804844290108084
H 8.542739691020456 5.201886068857999 -8.93342621300178
H 8.037074693103751 4.243370166910393 -10.00910526745783
O -0.8537333837544505 11.942157916809826 -1.1950818190536567
H -1.3091998034664196 12.146452542602159 -2.02561261516367
H -1.4550797879650528 11.331953878242654 -0.7423175561537559
O -3.9631560904017307 12.902336310180896 -4.638867445630644
H -4.435537324138976 12.861913835088023 -3.793770202456673
H -3.6961955715907515 13.830833894385844 -4.713608744935312
O 10.007392575508103 -5.923328148978882 -12.546863318984773
H 10.549760677061288 -6.725447887334236 -12.584388306104481
H 9.95446898530081 -5.63317772555868 -13.4698875709352
C -1.9609918787669391 3.4431420399754793 -1.9795936583576095
O -1.9393169892204478 3.3989966939585994 -0.7836004957984761
O -1.9826667683134305 3.487287385992359 -3.1755868209167426
C 2.1343156570292474 10.014531599530631 -2.439486876575413
O 2.4898154705363575 9.281934202802402 -1.5291592237473608
O 2.881505617460572 10.499875597737631 -3.2966798714925902
O 0.9723363303834713 10.38393771108019 -2.6444052837468144