104

C -5.0710522388059704 1.0783507462686561 0.47044029850746183
C -3.8153522388059704 0.1782507462686569 0.19534029850746193
C -4.11845223880597 -1.3219492537313435 0.5608402985074619
C -2.96945223880597 -2.3874492537313436 0.7034402985074619
C -2.52015223880597 0.7359507462686565 0.7384402985074618
C -2.20305223880597 0.7852507462686571 2.097440298507462
C -1.5755522388059702 1.205650746268656 -0.18965970149253808
C -0.9533522388059701 1.2695507462686564 2.508640298507462
H -2.91125223880597 0.4298507462686567 2.840840298507462
C -0.32655223880597006 1.6562507462686575 0.21554029850746192
H -1.7850522388059702 1.178550746268657 -1.2573597014925382
C 0.004447761194029898 1.6956507462686563 1.569740298507462
H -0.7158522388059702 1.2676507462686573 3.5705402985074617
H 0.3943477611940298 1.9193507462686572 -0.5551597014925382
C -1.76045223880597 -2.1592492537313435 -0.1734597014925381
C -0.5287522388059701 -1.936549253731343 0.464840298507462
C -1.8068522388059702 -2.121249253731343 -1.5681597014925381
C 0.6114477611940299 -1.614449253731343 -0.2582597014925381
H -0.4544522388059702 -1.954049253731343 1.5506402985074619
C -0.6479522388059701 -1.8270492537313432 -2.2998597014925384
H -2.74345223880597 -2.290549253731343 -2.092259701492538
C 0.5698477611940298 -1.5506492537313434 -1.6506597014925382
H 1.5072477611940298 -1.351949253731343 0.2991402985074618
H -0.7173522388059701 -1.7640492537313435 -3.3840597014925375
C 1.7791477611940298 -1.082849253731343 -2.4255597014925376
H 1.4739477611940297 -0.9102492537313429 -3.464259701492538
H 2.1252477611940295 -0.1337492537313434 -2.0010597014925384
C 1.3965477611940298 2.0964507462686566 1.997440298507462
H 1.51704776119403 1.8448507462686567 3.057640298507462
H 2.1256477611940294 1.5207507462686571 1.4165402985074618
C 3.94864776119403 -1.4275492537313434 -3.522959701492538
H 4.81734776119403 -2.087049253731343 -3.615159701492538
H 3.4305477611940303 -1.3641492537313429 -4.484459701492538
H 4.26984776119403 -0.441449253731343 -3.176459701492538
C 2.60904776119403 -3.4296492537313434 -2.8992597014925376
H 1.9825477611940296 -3.869549253731343 -2.119359701492538
H 2.06294776119403 -3.373349253731343 -3.845759701492538
H 3.5215477611940305 -4.019849253731343 -3.0234597014925377
C 3.7281477611940304 -2.060049253731343 -1.156659701492538
H 3.9048477611940298 -1.032549253731343 -0.8295597014925382
H 3.12924776119403 -2.623249253731343 -0.4404597014925382
H 4.68244776119403 -2.5769492537313434 -1.3005597014925383
C 3.1110477611940297 3.755250746268656 2.588740298507462
H 3.40124776119403 4.809350746268656 2.534540298507462
H 2.9823477611940303 3.461750746268656 3.634840298507462
H 3.86514776119403 3.1392507462686563 2.091540298507462
C 1.99744776119403 3.9574507462686572 0.40494029850746194
H 2.67914776119403 3.230350746268657 -0.04295970149253803
H 1.03214776119403 3.981150746268657 -0.10175970149253821
H 2.4399477611940297 4.958250746268657 0.368240298507462
C 0.7418477611940297 4.4992507462686575 2.475440298507462
H -0.18475223880597014 4.424250746268656 1.901240298507462
H 0.57844776119403 4.189650746268656 3.511940298507462
H 1.1210477611940297 5.524350746268658 2.4432402985074617
N 3.00114776119403 -2.025349253731343 -2.490159701492538
N 1.7831477611940298 3.586450746268657 1.862540298507462
C -3.55075223880597 -3.8435492537313434 0.6444402985074619
H -2.62515223880597 -2.2736492537313433 1.7424402985074618
H -4.67195223880597 -1.3478492537313436 1.5102402985074619
H -4.83415223880597 -1.6757492537313432 -0.1945597014925382
H -3.7169522388059697 0.17335074626865676 -0.900559701492538
H -3.9132522388059705 -4.043149253731343 -0.34225970149253815
H -4.35435223880597 -3.9354492537313432 1.3449402985074619
H -2.78115223880597 -4.545049253731343 0.8904402985074619
H -5.24235223880597 1.138950746268657 1.5249402985074618
H -5.92805223880597 0.6501507462686567 -0.006059701492538094
H -4.89895223880597 2.059650746268657 0.08004029850746197
O -13.308186158801295 -3.5257103069913422 13.827845921355946
H -13.314031337998058 -3.4616667278018136 12.860979016996948
H -12.981704359723839 -2.66065036716668 14.117747421320502
O 2.9452295629021505 2.0042543027101107 9.061373684129839
H 2.1561260495190258 1.4945887450865372 9.299121494716312
H 2.7589358286717305 2.3191313213175806 8.164094991615993
O 7.627094013896232 1.7127883262838195 -8.06160088415179
H 7.35719244126551 1.3017985401447068 -7.226611127519536
H 7.326858271697846 2.630359665749065 -7.9786353467369215
O 2.177931219678924 0.6224473556596395 6.129454138814668
H 2.445045442818196 0.30956794983334485 5.25211507886892
H 1.553739407608288 -0.051355804865797716 6.43821914154313
O 1.2143176338982316 -0.3351748290112409 -11.12982263256019
H 1.5847141587065032 -0.504515868869185 -10.250563067056472
H 1.5772639745582178 -1.0471850934010138 -11.677794604019617
O 5.149262144363186 -2.876060911169405 5.887223853710761
H 4.780854443367456 -2.608560017335658 6.74261054670124
H 6.107859700490402 -2.8212744488508106 6.017803765004733
O 5.359623912758393 -0.01659201420622891 -10.99483592729345
H 5.030327962466106 -0.5859916328817144 -11.706394504132568
H 4.7654893861234235 -0.20259929418549433 -10.252294749745056
O -11.29207973303546 -0.7873500997231344 11.940614416698093
H -11.047113128973985 -0.32539874363889487 12.756432818308722
H -11.35192952522337 -0.08060760228006258 11.280390978017676
O 12.324855679326921 -2.998753792970318 13.62467464610925
H 12.95860015575624 -3.640622183806343 13.270640376100117
H 12.883056946872827 -2.300149902960456 13.997938485870394
O -5.532246055519685 0.0519825767900233 -8.810498597914817
H -6.2553394396291155 0.5665647569887761 -8.421514672052743
H -5.7598190878141535 0.002460915522134094 -9.751094188132827
C -4.480776601846138 2.9049681792069344 5.034527567158977
O -3.8564348671298414 2.3068923602957243 5.862368717637215
O -5.105118336562434 3.5030439981181445 4.20668641668074
C 7.728644208962628 6.051404231200093 -7.826456745386599
O 7.5810783243652375 6.0980739285881445 -6.614919809239502
O 7.279076471066962 6.875300439428633 -8.631264393964821
O 8.350390533428632 5.173044658407857 -8.435196717211397