104

C -5.0710522388059704 1.0783507462686561 0.47044029850746183
C -3.8153522388059704 0.1782507462686569 0.19534029850746193
C -4.11845223880597 -1.3219492537313435 0.5608402985074619
C -2.96945223880597 -2.3874492537313436 0.7034402985074619
C -2.52015223880597 0.7359507462686565 0.7384402985074618
C -2.20305223880597 0.7852507462686571 2.097440298507462
C -1.5755522388059702 1.205650746268656 -0.18965970149253808
C -0.9533522388059701 1.2695507462686564 2.508640298507462
H -2.91125223880597 0.4298507462686567 2.840840298507462
C -0.32655223880597006 1.6562507462686575 0.21554029850746192
H -1.7850522388059702 1.178550746268657 -1.2573597014925382
C 0.004447761194029898 1.6956507462686563 1.569740298507462
H -0.7158522388059702 1.2676507462686573 3.5705402985074617
H 0.3943477611940298 1.9193507462686572 -0.5551597014925382
C -1.76045223880597 -2.1592492537313435 -0.1734597014925381
C -0.5287522388059701 -1.936549253731343 0.464840298507462
C -1.8068522388059702 -2.121249253731343 -1.5681597014925381
C 0.6114477611940299 -1.614449253731343 -0.2582597014925381
H -0.4544522388059702 -1.954049253731343 1.5506402985074619
C -0.6479522388059701 -1.8270492537313432 -2.2998597014925384
H -2.74345223880597 -2.290549253731343 -2.092259701492538
C 0.5698477611940298 -1.5506492537313434 -1.6506597014925382
H 1.5072477611940298 -1.351949253731343 0.2991402985074618
H -0.7173522388059701 -1.7640492537313435 -3.3840597014925375
C 1.7791477611940298 -1.082849253731343 -2.4255597014925376
H 1.4739477611940297 -0.9102492537313429 -3.464259701492538
H 2.1252477611940295 -0.1337492537313434 -2.0010597014925384
C 1.3965477611940298 2.0964507462686566 1.997440298507462
H 1.51704776119403 1.8448507462686567 3.057640298507462
H 2.1256477611940294 1.5207507462686571 1.4165402985074618
C 3.94864776119403 -1.4275492537313434 -3.522959701492538
H 4.81734776119403 -2.087049253731343 -3.615159701492538
H 3.4305477611940303 -1.3641492537313429 -4.484459701492538
H 4.26984776119403 -0.441449253731343 -3.176459701492538
C 2.60904776119403 -3.4296492537313434 -2.8992597014925376
H 1.9825477611940296 -3.869549253731343 -2.119359701492538
H 2.06294776119403 -3.373349253731343 -3.845759701492538
H 3.5215477611940305 -4.019849253731343 -3.0234597014925377
C 3.7281477611940304 -2.060049253731343 -1.156659701492538
H 3.9048477611940298 -1.032549253731343 -0.8295597014925382
H 3.12924776119403 -2.623249253731343 -0.4404597014925382
H 4.68244776119403 -2.5769492537313434 -1.3005597014925383
C 3.1110477611940297 3.755250746268656 2.588740298507462
H 3.40124776119403 4.809350746268656 2.534540298507462
H 2.9823477611940303 3.461750746268656 3.634840298507462
H 3.86514776119403 3.1392507462686563 2.091540298507462
C 1.99744776119403 3.9574507462686572 0.40494029850746194
H 2.67914776119403 3.230350746268657 -0.04295970149253803
H 1.03214776119403 3.981150746268657 -0.10175970149253821
H 2.4399477611940297 4.958250746268657 0.368240298507462
C 0.7418477611940297 4.4992507462686575 2.475440298507462
H -0.18475223880597014 4.424250746268656 1.901240298507462
H 0.57844776119403 4.189650746268656 3.511940298507462
H 1.1210477611940297 5.524350746268658 2.4432402985074617
N 3.00114776119403 -2.025349253731343 -2.490159701492538
N 1.7831477611940298 3.586450746268657 1.862540298507462
C -3.55075223880597 -3.8435492537313434 0.6444402985074619
H -2.62515223880597 -2.2736492537313433 1.7424402985074618
H -4.67195223880597 -1.3478492537313436 1.5102402985074619
H -4.83415223880597 -1.6757492537313432 -0.1945597014925382
H -3.7169522388059697 0.17335074626865676 -0.900559701492538
H -3.9132522388059705 -4.043149253731343 -0.34225970149253815
H -4.35435223880597 -3.9354492537313432 1.3449402985074619
H -2.78115223880597 -4.545049253731343 0.8904402985074619
H -5.24235223880597 1.138950746268657 1.5249402985074618
H -5.92805223880597 0.6501507462686567 -0.006059701492538094
H -4.89895223880597 2.059650746268657 0.08004029850746197
O 0.4527222992858519 0.12861377187170442 7.518482610966177
H 0.23972178516715983 -0.4769928071072343 8.244319238164476
H -0.28029939799582293 0.7623642830762345 7.519676412578149
O -8.893500214441564 -9.036985707721756 9.0696402750984
H -8.862266244112716 -9.089710666061755 10.03670380701631
H -9.534980433429428 -8.332212421898166 8.894255872893694
O 0.6485744674010989 -8.947425121454259 -1.0552300501491394
H 0.6005914983693582 -8.802532787635936 -0.09832294745652204
H 0.4676898045405083 -8.073875862144526 -1.4335875194836643
O -0.6317193004765483 1.1500904283670748 -8.052621510076355
H -1.127918783230081 0.8572601562192044 -8.831726035752423
H -0.4044371692562572 0.3259203063145262 -7.5964982953154205
O 9.379694753481798 5.271158193968829 -11.54312884526959
H 9.55214667629 6.112905795262603 -11.09514595839116
H 8.70576150498924 4.846241448930593 -10.991565901751466
O -4.537054188156324 -1.5345824410986513 14.030095500719149
H -4.554344417396101 -2.2202083871688933 13.345562472335477
H -3.5982102164670886 -1.4524728760190713 14.255466218526994
O -7.610123447681586 -0.048726178134682885 8.131377409734382
H -7.226642624962061 0.17161164058417044 7.269193519170092
H -6.8940159248463715 -0.5076224228057269 8.595668478640114
O 4.825929209421772 9.406586864173054 -4.7804735192870345
H 4.1101512312013195 8.943918248703204 -4.319423635810362
H 4.4859887682948605 10.306474939689382 -4.897109244217092
O 10.192122318264161 5.0237727405236985 10.029490777936116
H 9.48210314699403 4.614947400264056 10.546890018842463
H 10.007130643336815 4.747810215189097 9.119224493204817
O 4.979102915145592 -1.509126915439886 -9.876342689972981
H 5.1387641186495765 -1.2400282257216666 -8.959248609636838
H 4.062699308919111 -1.241676037165856 -10.04258468979718
C -4.689557760381278 3.601079272388218 -7.138227772498305
O -3.5196633493407825 3.451554109050295 -6.933758826579905
O -5.859452171421772 3.7506044357261414 -7.342696718416705
C -11.91409127812889 -1.0418147859611435 11.926076050853906
O -10.98299026006595 -0.5869584495326515 11.279599364520202
O -11.807798032543745 -1.651110971400168 12.996632620331871
O -13.106746742721013 -0.9632130016971571 11.609780166136655