104

C -5.0710522388059704 1.0783507462686561 0.47044029850746183
C -3.8153522388059704 0.1782507462686569 0.19534029850746193
C -4.11845223880597 -1.3219492537313435 0.5608402985074619
C -2.96945223880597 -2.3874492537313436 0.7034402985074619
C -2.52015223880597 0.7359507462686565 0.7384402985074618
C -2.20305223880597 0.7852507462686571 2.097440298507462
C -1.5755522388059702 1.205650746268656 -0.18965970149253808
C -0.9533522388059701 1.2695507462686564 2.508640298507462
H -2.91125223880597 0.4298507462686567 2.840840298507462
C -0.32655223880597006 1.6562507462686575 0.21554029850746192
H -1.7850522388059702 1.178550746268657 -1.2573597014925382
C 0.004447761194029898 1.6956507462686563 1.569740298507462
H -0.7158522388059702 1.2676507462686573 3.5705402985074617
H 0.3943477611940298 1.9193507462686572 -0.5551597014925382
C -1.76045223880597 -2.1592492537313435 -0.1734597014925381
C -0.5287522388059701 -1.936549253731343 0.464840298507462
C -1.8068522388059702 -2.121249253731343 -1.5681597014925381
C 0.6114477611940299 -1.614449253731343 -0.2582597014925381
H -0.4544522388059702 -1.954049253731343 1.5506402985074619
C -0.6479522388059701 -1.8270492537313432 -2.2998597014925384
H -2.74345223880597 -2.290549253731343 -2.092259701492538
C 0.5698477611940298 -1.5506492537313434 -1.6506597014925382
H 1.5072477611940298 -1.351949253731343 0.2991402985074618
H -0.7173522388059701 -1.7640492537313435 -3.3840597014925375
C 1.7791477611940298 -1.082849253731343 -2.4255597014925376
H 1.4739477611940297 -0.9102492537313429 -3.464259701492538
H 2.1252477611940295 -0.1337492537313434 -2.0010597014925384
C 1.3965477611940298 2.0964507462686566 1.997440298507462
H 1.51704776119403 1.8448507462686567 3.057640298507462
H 2.1256477611940294 1.5207507462686571 1.4165402985074618
C 3.94864776119403 -1.4275492537313434 -3.522959701492538
H 4.81734776119403 -2.087049253731343 -3.615159701492538
H 3.4305477611940303 -1.3641492537313429 -4.484459701492538
H 4.26984776119403 -0.441449253731343 -3.176459701492538
C 2.60904776119403 -3.4296492537313434 -2.8992597014925376
H 1.9825477611940296 -3.869549253731343 -2.119359701492538
H 2.06294776119403 -3.373349253731343 -3.845759701492538
H 3.5215477611940305 -4.019849253731343 -3.0234597014925377
C 3.7281477611940304 -2.060049253731343 -1.156659701492538
H 3.9048477611940298 -1.032549253731343 -0.8295597014925382
H 3.12924776119403 -2.623249253731343 -0.4404597014925382
H 4.68244776119403 -2.5769492537313434 -1.3005597014925383
C 3.1110477611940297 3.755250746268656 2.588740298507462
H 3.40124776119403 4.809350746268656 2.534540298507462
H 2.9823477611940303 3.461750746268656 3.634840298507462
H 3.86514776119403 3.1392507462686563 2.091540298507462
C 1.99744776119403 3.9574507462686572 0.40494029850746194
H 2.67914776119403 3.230350746268657 -0.04295970149253803
H 1.03214776119403 3.981150746268657 -0.10175970149253821
H 2.4399477611940297 4.958250746268657 0.368240298507462
C 0.7418477611940297 4.4992507462686575 2.475440298507462
H -0.18475223880597014 4.424250746268656 1.901240298507462
H 0.57844776119403 4.189650746268656 3.511940298507462
H 1.1210477611940297 5.524350746268658 2.4432402985074617
N 3.00114776119403 -2.025349253731343 -2.490159701492538
N 1.7831477611940298 3.586450746268657 1.862540298507462
C -3.55075223880597 -3.8435492537313434 0.6444402985074619
H -2.62515223880597 -2.2736492537313433 1.7424402985074618
H -4.67195223880597 -1.3478492537313436 1.5102402985074619
H -4.83415223880597 -1.6757492537313432 -0.1945597014925382
H -3.7169522388059697 0.17335074626865676 -0.900559701492538
H -3.9132522388059705 -4.043149253731343 -0.34225970149253815
H -4.35435223880597 -3.9354492537313432 1.3449402985074619
H -2.78115223880597 -4.545049253731343 0.8904402985074619
H -5.24235223880597 1.138950746268657 1.5249402985074618
H -5.92805223880597 0.6501507462686567 -0.006059701492538094
H -4.89895223880597 2.059650746268657 0.08004029850746197
O 8.359770707486463 7.9839135134662556 9.829129439555416
H 8.347581388731713 7.785741170515637 8.880685187162184
H 8.693200424790529 7.169232484224256 10.234199049019923
O -4.93067914462685 -4.445774922027645 -5.303897134065674
H -5.735825716656271 -3.9493355897390243 -5.093529969788309
H -4.44991133502584 -3.8649740065101112 -5.912579772297981
O -3.127668058329776 12.002569533028916 -3.4476850192412636
H -2.8977708653336283 11.225070987318864 -2.9170150191741353
H -2.4074781793246527 12.066930590534 -4.092778916868123
O -12.588248728315726 1.6075209006176814 12.965768683241652
H -13.160765201885132 0.8499794884581071 13.158960953415512
H -11.751232612487263 1.2041770929860025 12.690669175810957
O 3.136780169719147 -1.008535534836655 3.613764200591245
H 3.1931036155319066 -0.9388178683334246 4.578613656894726
H 4.060710831156885 -1.0763739623736734 3.3296655823184205
O -1.3147276970743351 -8.769754806923148 1.3574812021828937
H -2.2296920026403146 -9.058997377185507 1.2227725833487948
H -1.2863581511485667 -8.50993466207712 2.2905678034671224
O 4.116878187629048 6.731654845781226 -3.6695085932570417
H 4.059377563008743 6.747188400981139 -4.636679593510424
H 3.4651567420119043 7.3901871686380565 -3.38568420851273
O 8.866836886761165 2.2479228929858435 8.399505832002435
H 9.070707119579057 2.226240618257274 9.346571914191728
H 7.9000999377716 2.3069157535328992 8.369481539124477
O -6.970795486049328 -5.5652300699561446 9.16926319955987
H -7.914722670792612 -5.431636718244955 9.342819078691603
H -6.556857568271006 -5.469614139478781 10.040167866193535
O 4.003333170034669 -11.344032548043032 3.900385751530951
H 3.126451715844266 -11.742342561168519 4.007135016825373
H 4.574439221683867 -11.878663167058255 4.47219859091204
C 7.102246498476875 -0.5035471201126347 -7.979968421234841
O 8.147714313041787 -0.9501681955589811 -8.354594796408849
O 6.056778683911963 -0.05692604466628831 -7.605342046060834
C 0.488758647136232 -0.13975888770235181 14.56669332643157
O -0.18826287104692785 -0.5875894012193248 13.654078843925353
O 0.1911562679136467 -0.1899105659386423 15.76567168201233
O 1.5762790523446764 0.43289907960590895 14.432489730601832