104

C -5.0710522388059704 1.0783507462686561 0.47044029850746183
C -3.8153522388059704 0.1782507462686569 0.19534029850746193
C -4.11845223880597 -1.3219492537313435 0.5608402985074619
C -2.96945223880597 -2.3874492537313436 0.7034402985074619
C -2.52015223880597 0.7359507462686565 0.7384402985074618
C -2.20305223880597 0.7852507462686571 2.097440298507462
C -1.5755522388059702 1.205650746268656 -0.18965970149253808
C -0.9533522388059701 1.2695507462686564 2.508640298507462
H -2.91125223880597 0.4298507462686567 2.840840298507462
C -0.32655223880597006 1.6562507462686575 0.21554029850746192
H -1.7850522388059702 1.178550746268657 -1.2573597014925382
C 0.004447761194029898 1.6956507462686563 1.569740298507462
H -0.7158522388059702 1.2676507462686573 3.5705402985074617
H 0.3943477611940298 1.9193507462686572 -0.5551597014925382
C -1.76045223880597 -2.1592492537313435 -0.1734597014925381
C -0.5287522388059701 -1.936549253731343 0.464840298507462
C -1.8068522388059702 -2.121249253731343 -1.5681597014925381
C 0.6114477611940299 -1.614449253731343 -0.2582597014925381
H -0.4544522388059702 -1.954049253731343 1.5506402985074619
C -0.6479522388059701 -1.8270492537313432 -2.2998597014925384
H -2.74345223880597 -2.290549253731343 -2.092259701492538
C 0.5698477611940298 -1.5506492537313434 -1.6506597014925382
H 1.5072477611940298 -1.351949253731343 0.2991402985074618
H -0.7173522388059701 -1.7640492537313435 -3.3840597014925375
C 1.7791477611940298 -1.082849253731343 -2.4255597014925376
H 1.4739477611940297 -0.9102492537313429 -3.464259701492538
H 2.1252477611940295 -0.1337492537313434 -2.0010597014925384
C 1.3965477611940298 2.0964507462686566 1.997440298507462
H 1.51704776119403 1.8448507462686567 3.057640298507462
H 2.1256477611940294 1.5207507462686571 1.4165402985074618
C 3.94864776119403 -1.4275492537313434 -3.522959701492538
H 4.81734776119403 -2.087049253731343 -3.615159701492538
H 3.4305477611940303 -1.3641492537313429 -4.484459701492538
H 4.26984776119403 -0.441449253731343 -3.176459701492538
C 2.60904776119403 -3.4296492537313434 -2.8992597014925376
H 1.9825477611940296 -3.869549253731343 -2.119359701492538
H 2.06294776119403 -3.373349253731343 -3.845759701492538
H 3.5215477611940305 -4.019849253731343 -3.0234597014925377
C 3.7281477611940304 -2.060049253731343 -1.156659701492538
H 3.9048477611940298 -1.032549253731343 -0.8295597014925382
H 3.12924776119403 -2.623249253731343 -0.4404597014925382
H 4.68244776119403 -2.5769492537313434 -1.3005597014925383
C 3.1110477611940297 3.755250746268656 2.588740298507462
H 3.40124776119403 4.809350746268656 2.534540298507462
H 2.9823477611940303 3.461750746268656 3.634840298507462
H 3.86514776119403 3.1392507462686563 2.091540298507462
C 1.99744776119403 3.9574507462686572 0.40494029850746194
H 2.67914776119403 3.230350746268657 -0.04295970149253803
H 1.03214776119403 3.981150746268657 -0.10175970149253821
H 2.4399477611940297 4.958250746268657 0.368240298507462
C 0.7418477611940297 4.4992507462686575 2.475440298507462
H -0.18475223880597014 4.424250746268656 1.901240298507462
H 0.57844776119403 4.189650746268656 3.511940298507462
H 1.1210477611940297 5.524350746268658 2.4432402985074617
N 3.00114776119403 -2.025349253731343 -2.490159701492538
N 1.7831477611940298 3.586450746268657 1.862540298507462
C -3.55075223880597 -3.8435492537313434 0.6444402985074619
H -2.62515223880597 -2.2736492537313433 1.7424402985074618
H -4.67195223880597 -1.3478492537313436 1.5102402985074619
H -4.83415223880597 -1.6757492537313432 -0.1945597014925382
H -3.7169522388059697 0.17335074626865676 -0.900559701492538
H -3.9132522388059705 -4.043149253731343 -0.34225970149253815
H -4.35435223880597 -3.9354492537313432 1.3449402985074619
H -2.78115223880597 -4.545049253731343 0.8904402985074619
H -5.24235223880597 1.138950746268657 1.5249402985074618
H -5.92805223880597 0.6501507462686567 -0.006059701492538094
H -4.89895223880597 2.059650746268657 0.08004029850746197
O 8.474159746749425 -8.750734738511248 -8.593412799949702
H 8.248894770008064 -7.813360683816634 -8.495673714937137
H 8.016028509988459 -9.179762775697746 -7.855163074239107
O -1.9771721467128018 -1.6090932751507987 -9.400854415845041
H -2.01578391492386 -1.3548642202766843 -8.46659316977228
H -1.0985584687292729 -1.317103549959503 -9.6867599064236
O -6.638229409908079 -6.2438118456795095 10.052779376525452
H -7.375015801783266 -5.664228752932439 10.298129347483846
H -6.046864085025177 -6.2079662622100615 10.819567542169573
O 6.918892075266795 6.794542258706098 10.287915393026198
H 6.369037768199208 6.971867111603994 9.50997998796742
H 6.922490651419726 5.827985561901588 10.356596878246203
O -4.106843847676951 1.9058754899689347 -13.035536430584783
H -4.53881907827455 1.1793908687653936 -12.561632587801354
H -3.6943666119581287 1.4747463099365388 -13.799049432725775
O -2.931481050525908 1.4834212228583432 -7.044173412207501
H -2.4542662138512563 1.2343699383396403 -6.23843970046573
H -2.2454462210688955 1.494958378024246 -7.72841390437569
O -10.2024178740278 -7.052620465136418 11.082782115957588
H -9.320145685624098 -6.824617569470769 10.753270625964564
H -10.778260041998653 -6.931782559274414 10.312869171272599
O -0.47703717163438863 -0.9246522878793944 6.0286754953332
H -1.2723395870900926 -0.6628839211167095 5.540885840837822
H -0.34338449330354703 -0.20396292406226196 6.662478104002373
O -1.9243207816184194 -6.0207139428470535 -2.1380517147862474
H -1.3771224595695766 -5.84636119351642 -2.918527513288534
H -1.7232841004613588 -6.941323177607559 -1.9121649422584392
O 2.8739983999043894 -0.9800593137553779 3.8775827025057192
H 3.2331071530671904 -0.9906608476253895 2.9776405555976733
H 3.0384590690065068 -1.8768275690523377 4.205791978593599
C -6.31567869582388 2.461756580500054 -6.52205653220464
O -7.318972583046779 3.107501987655568 -6.425970621173288
O -5.3123848086009815 1.81601117334454 -6.6181424432359925
C -7.748279473827917 3.3009823308245396 -10.11086509377695
O -8.846754702743409 2.8209733357892843 -10.344786094852743
O -6.864078849825994 3.5003318018776906 -10.951745887353209
O -7.350848170461737 3.6616798421459786 -8.997045517350328