104

C -5.0710522388059704 1.0783507462686561 0.47044029850746183
C -3.8153522388059704 0.1782507462686569 0.19534029850746193
C -4.11845223880597 -1.3219492537313435 0.5608402985074619
C -2.96945223880597 -2.3874492537313436 0.7034402985074619
C -2.52015223880597 0.7359507462686565 0.7384402985074618
C -2.20305223880597 0.7852507462686571 2.097440298507462
C -1.5755522388059702 1.205650746268656 -0.18965970149253808
C -0.9533522388059701 1.2695507462686564 2.508640298507462
H -2.91125223880597 0.4298507462686567 2.840840298507462
C -0.32655223880597006 1.6562507462686575 0.21554029850746192
H -1.7850522388059702 1.178550746268657 -1.2573597014925382
C 0.004447761194029898 1.6956507462686563 1.569740298507462
H -0.7158522388059702 1.2676507462686573 3.5705402985074617
H 0.3943477611940298 1.9193507462686572 -0.5551597014925382
C -1.76045223880597 -2.1592492537313435 -0.1734597014925381
C -0.5287522388059701 -1.936549253731343 0.464840298507462
C -1.8068522388059702 -2.121249253731343 -1.5681597014925381
C 0.6114477611940299 -1.614449253731343 -0.2582597014925381
H -0.4544522388059702 -1.954049253731343 1.5506402985074619
C -0.6479522388059701 -1.8270492537313432 -2.2998597014925384
H -2.74345223880597 -2.290549253731343 -2.092259701492538
C 0.5698477611940298 -1.5506492537313434 -1.6506597014925382
H 1.5072477611940298 -1.351949253731343 0.2991402985074618
H -0.7173522388059701 -1.7640492537313435 -3.3840597014925375
C 1.7791477611940298 -1.082849253731343 -2.4255597014925376
H 1.4739477611940297 -0.9102492537313429 -3.464259701492538
H 2.1252477611940295 -0.1337492537313434 -2.0010597014925384
C 1.3965477611940298 2.0964507462686566 1.997440298507462
H 1.51704776119403 1.8448507462686567 3.057640298507462
H 2.1256477611940294 1.5207507462686571 1.4165402985074618
C 3.94864776119403 -1.4275492537313434 -3.522959701492538
H 4.81734776119403 -2.087049253731343 -3.615159701492538
H 3.4305477611940303 -1.3641492537313429 -4.484459701492538
H 4.26984776119403 -0.441449253731343 -3.176459701492538
C 2.60904776119403 -3.4296492537313434 -2.8992597014925376
H 1.9825477611940296 -3.869549253731343 -2.119359701492538
H 2.06294776119403 -3.373349253731343 -3.845759701492538
H 3.5215477611940305 -4.019849253731343 -3.0234597014925377
C 3.7281477611940304 -2.060049253731343 -1.156659701492538
H 3.9048477611940298 -1.032549253731343 -0.8295597014925382
H 3.12924776119403 -2.623249253731343 -0.4404597014925382
H 4.68244776119403 -2.5769492537313434 -1.3005597014925383
C 3.1110477611940297 3.755250746268656 2.588740298507462
H 3.40124776119403 4.809350746268656 2.534540298507462
H 2.9823477611940303 3.461750746268656 3.634840298507462
H 3.86514776119403 3.1392507462686563 2.091540298507462
C 1.99744776119403 3.9574507462686572 0.40494029850746194
H 2.67914776119403 3.230350746268657 -0.04295970149253803
H 1.03214776119403 3.981150746268657 -0.10175970149253821
H 2.4399477611940297 4.958250746268657 0.368240298507462
C 0.7418477611940297 4.4992507462686575 2.475440298507462
H -0.18475223880597014 4.424250746268656 1.901240298507462
H 0.57844776119403 4.189650746268656 3.511940298507462
H 1.1210477611940297 5.524350746268658 2.4432402985074617
N 3.00114776119403 -2.025349253731343 -2.490159701492538
N 1.7831477611940298 3.586450746268657 1.862540298507462
C -3.55075223880597 -3.8435492537313434 0.6444402985074619
H -2.62515223880597 -2.2736492537313433 1.7424402985074618
H -4.67195223880597 -1.3478492537313436 1.5102402985074619
H -4.83415223880597 -1.6757492537313432 -0.1945597014925382
H -3.7169522388059697 0.17335074626865676 -0.900559701492538
H -3.9132522388059705 -4.043149253731343 -0.34225970149253815
H -4.35435223880597 -3.9354492537313432 1.3449402985074619
H -2.78115223880597 -4.545049253731343 0.8904402985074619
H -5.24235223880597 1.138950746268657 1.5249402985074618
H -5.92805223880597 0.6501507462686567 -0.006059701492538094
H -4.89895223880597 2.059650746268657 0.08004029850746197
O -9.748130498216979 -6.5280980619869 -10.105922993346871
H -10.435387696836898 -7.180086494021825 -9.902070143629878
H -9.03370686004845 -6.739597152979869 -9.486383693515783
O -0.8598069890866329 0.5501797256859582 -5.045723311164276
H -0.6484308140555941 0.19571329725360365 -4.16900156474546
H -1.6753503505963876 0.08953583141075278 -5.294033948198501
O 9.85107685441621 -7.059912680555193 10.158755312482494
H 9.422115334934968 -6.19333853498623 10.095441633583166
H 10.06913274194281 -7.280764394829629 9.240802103153703
O -1.0060215919760565 -0.0032074803902846505 -9.41910390197198
H -1.2565262707372105 0.23355205619028627 -10.324730582595363
H -0.8332689823917707 -0.9555586435381731 -9.465426059010296
O -3.629188136529396 9.398499888613205 3.4151934455078203
H -3.549864477670326 9.879899240739135 4.252408936177902
H -2.807315399762275 8.888181524807045 3.3598552451293813
O -4.2120032271115235 -0.37999515456160565 -5.068284981215823
H -4.52861455367479 -1.2029968141912704 -5.47002232456178
H -3.8235255492095153 -0.6643585152288644 -4.2273423451330245
O -8.140780525052762 3.0790878842968814 8.28398615070537
H -8.872657705069392 2.6617296902107666 8.762666929617668
H -7.370145745235068 2.540728029019011 8.519044966027247
O 0.9688582036521385 -7.255575617142531 0.673442899015643
H 0.9563630794373956 -7.189061298426679 1.640079890950374
H 0.7594634503767296 -6.357992894617334 0.37434251816502484
O -3.722823898413035 3.475059723453393 7.519819305895482
H -3.9075834128484255 3.6439147265401157 8.455938564675144
H -2.8014731447811965 3.175001566124815 7.513507784476632
O 4.688740119465024 -10.514381882226704 -5.188313308150633
H 4.85959717640906 -10.295236564243668 -4.2600081037062445
H 4.878533664094461 -11.463002530252577 -5.243623531943019
C -1.9701982695249267 -9.764581471658044 2.1756242774609444
O -2.022696958555614 -9.761229022259625 0.9797769184585128
O -1.9176995804942396 -9.767933921056462 3.371471636463376
C -8.060047773286781 8.314438111091537 -9.696255716656868
O -9.00435578019068 7.546649135844076 -9.593503703607782
O -7.022789686781538 8.261946094325545 -9.025456406687546
O -7.995550457638754 9.262747508794835 -10.486950200577052