104

C -5.0710522388059704 1.0783507462686561 0.47044029850746183
C -3.8153522388059704 0.1782507462686569 0.19534029850746193
C -4.11845223880597 -1.3219492537313435 0.5608402985074619
C -2.96945223880597 -2.3874492537313436 0.7034402985074619
C -2.52015223880597 0.7359507462686565 0.7384402985074618
C -2.20305223880597 0.7852507462686571 2.097440298507462
C -1.5755522388059702 1.205650746268656 -0.18965970149253808
C -0.9533522388059701 1.2695507462686564 2.508640298507462
H -2.91125223880597 0.4298507462686567 2.840840298507462
C -0.32655223880597006 1.6562507462686575 0.21554029850746192
H -1.7850522388059702 1.178550746268657 -1.2573597014925382
C 0.004447761194029898 1.6956507462686563 1.569740298507462
H -0.7158522388059702 1.2676507462686573 3.5705402985074617
H 0.3943477611940298 1.9193507462686572 -0.5551597014925382
C -1.76045223880597 -2.1592492537313435 -0.1734597014925381
C -0.5287522388059701 -1.936549253731343 0.464840298507462
C -1.8068522388059702 -2.121249253731343 -1.5681597014925381
C 0.6114477611940299 -1.614449253731343 -0.2582597014925381
H -0.4544522388059702 -1.954049253731343 1.5506402985074619
C -0.6479522388059701 -1.8270492537313432 -2.2998597014925384
H -2.74345223880597 -2.290549253731343 -2.092259701492538
C 0.5698477611940298 -1.5506492537313434 -1.6506597014925382
H 1.5072477611940298 -1.351949253731343 0.2991402985074618
H -0.7173522388059701 -1.7640492537313435 -3.3840597014925375
C 1.7791477611940298 -1.082849253731343 -2.4255597014925376
H 1.4739477611940297 -0.9102492537313429 -3.464259701492538
H 2.1252477611940295 -0.1337492537313434 -2.0010597014925384
C 1.3965477611940298 2.0964507462686566 1.997440298507462
H 1.51704776119403 1.8448507462686567 3.057640298507462
H 2.1256477611940294 1.5207507462686571 1.4165402985074618
C 3.94864776119403 -1.4275492537313434 -3.522959701492538
H 4.81734776119403 -2.087049253731343 -3.615159701492538
H 3.4305477611940303 -1.3641492537313429 -4.484459701492538
H 4.26984776119403 -0.441449253731343 -3.176459701492538
C 2.60904776119403 -3.4296492537313434 -2.8992597014925376
H 1.9825477611940296 -3.869549253731343 -2.119359701492538
H 2.06294776119403 -3.373349253731343 -3.845759701492538
H 3.5215477611940305 -4.019849253731343 -3.0234597014925377
C 3.7281477611940304 -2.060049253731343 -1.156659701492538
H 3.9048477611940298 -1.032549253731343 -0.8295597014925382
H 3.12924776119403 -2.623249253731343 -0.4404597014925382
H 4.68244776119403 -2.5769492537313434 -1.3005597014925383
C 3.1110477611940297 3.755250746268656 2.588740298507462
H 3.40124776119403 4.809350746268656 2.534540298507462
H 2.9823477611940303 3.461750746268656 3.634840298507462
H 3.86514776119403 3.1392507462686563 2.091540298507462
C 1.99744776119403 3.9574507462686572 0.40494029850746194
H 2.67914776119403 3.230350746268657 -0.04295970149253803
H 1.03214776119403 3.981150746268657 -0.10175970149253821
H 2.4399477611940297 4.958250746268657 0.368240298507462
C 0.7418477611940297 4.4992507462686575 2.475440298507462
H -0.18475223880597014 4.424250746268656 1.901240298507462
H 0.57844776119403 4.189650746268656 3.511940298507462
H 1.1210477611940297 5.524350746268658 2.4432402985074617
N 3.00114776119403 -2.025349253731343 -2.490159701492538
N 1.7831477611940298 3.586450746268657 1.862540298507462
C -3.55075223880597 -3.8435492537313434 0.6444402985074619
H -2.62515223880597 -2.2736492537313433 1.7424402985074618
H -4.67195223880597 -1.3478492537313436 1.5102402985074619
H -4.83415223880597 -1.6757492537313432 -0.1945597014925382
H -3.7169522388059697 0.17335074626865676 -0.900559701492538
H -3.9132522388059705 -4.043149253731343 -0.34225970149253815
H -4.35435223880597 -3.9354492537313432 1.3449402985074619
H -2.78115223880597 -4.545049253731343 0.8904402985074619
H -5.24235223880597 1.138950746268657 1.5249402985074618
H -5.92805223880597 0.6501507462686567 -0.006059701492538094
H -4.89895223880597 2.059650746268657 0.08004029850746197
O 3.190469508165947 -3.8217146639961874 3.7996888525529497
H 2.8222760746459907 -3.83116271796642 2.903412284361545
H 2.520192560573766 -3.357353850660659 4.3231960567678245
O 2.4584905563017307 5.003877915238964 -2.9615533135149015
H 2.898020807598235 4.447877172608925 -2.3007631128535437
H 2.9340481154761555 4.810897845680665 -3.783481318248489
O 2.9171072196916614 0.22012525954678103 11.232587340137885
H 3.126325258591989 0.07530783553928179 10.297588365377734
H 2.33075406746115 -0.5176032133753158 11.458216738509137
O -1.6405518000373025 0.5241119309791055 13.25484002655854
H -1.6788770746589663 1.4480618764642932 13.54434827939962
H -1.1814971697320007 0.5647698575842468 12.402444740497295
O -7.422789864079823 1.8202054720369634 7.604172088825012
H -7.171266966732059 2.247179981080788 8.436876332621436
H -7.327028289461174 2.5220790011215746 6.942987383695749
O 0.078507529138106 -15.365548110389403 -0.104263744903378
H -0.10865555949477135 -14.866429413976727 -0.9134719146870959
H 0.627595883697284 -14.763621496554952 0.4202820345527972
O -4.61523493372158 -9.93129938445644 6.855832266263331
H -4.098387728830606 -10.072222173212987 6.048381282422537
H -5.42736306672992 -9.505532987504507 6.542570690095813
O -11.042044357940567 0.8593843611418868 11.075764009661505
H -11.100625328582677 0.4082723821614158 10.220174383030285
H -10.682870893562846 0.18506509419853012 11.67179244272144
O -10.455346212783857 8.340360682787841 10.178426168870374
H -10.194885119031266 7.407444784029691 10.150225080496396
H -9.640225316071907 8.817585727616928 9.962102049476846
O 2.6885470648132257 9.083903927008043 3.6226367674944817
H 2.854571984798376 9.100383660900205 2.6681046825362182
H 3.037195612288659 8.22537262957086 3.906062500207824
C 8.139023474660513 8.621563342117161 -8.23757557625544
O 8.696435019408439 7.991511461879375 -7.3860209653874325
O 7.581611929912588 9.251615222354948 -9.089130187123446
C 6.848224810309424 3.463233865521246 7.980173286259069
O 7.262230434175515 3.502210853245649 6.831758885254283
O 7.5457208335503 3.586188686146461 8.993589722749116
O 5.667678551222233 3.2948009766278044 8.3066534181113