104

C -5.0710522388059704 1.0783507462686561 0.47044029850746183
C -3.8153522388059704 0.1782507462686569 0.19534029850746193
C -4.11845223880597 -1.3219492537313435 0.5608402985074619
C -2.96945223880597 -2.3874492537313436 0.7034402985074619
C -2.52015223880597 0.7359507462686565 0.7384402985074618
C -2.20305223880597 0.7852507462686571 2.097440298507462
C -1.5755522388059702 1.205650746268656 -0.18965970149253808
C -0.9533522388059701 1.2695507462686564 2.508640298507462
H -2.91125223880597 0.4298507462686567 2.840840298507462
C -0.32655223880597006 1.6562507462686575 0.21554029850746192
H -1.7850522388059702 1.178550746268657 -1.2573597014925382
C 0.004447761194029898 1.6956507462686563 1.569740298507462
H -0.7158522388059702 1.2676507462686573 3.5705402985074617
H 0.3943477611940298 1.9193507462686572 -0.5551597014925382
C -1.76045223880597 -2.1592492537313435 -0.1734597014925381
C -0.5287522388059701 -1.936549253731343 0.464840298507462
C -1.8068522388059702 -2.121249253731343 -1.5681597014925381
C 0.6114477611940299 -1.614449253731343 -0.2582597014925381
H -0.4544522388059702 -1.954049253731343 1.5506402985074619
C -0.6479522388059701 -1.8270492537313432 -2.2998597014925384
H -2.74345223880597 -2.290549253731343 -2.092259701492538
C 0.5698477611940298 -1.5506492537313434 -1.6506597014925382
H 1.5072477611940298 -1.351949253731343 0.2991402985074618
H -0.7173522388059701 -1.7640492537313435 -3.3840597014925375
C 1.7791477611940298 -1.082849253731343 -2.4255597014925376
H 1.4739477611940297 -0.9102492537313429 -3.464259701492538
H 2.1252477611940295 -0.1337492537313434 -2.0010597014925384
C 1.3965477611940298 2.0964507462686566 1.997440298507462
H 1.51704776119403 1.8448507462686567 3.057640298507462
H 2.1256477611940294 1.5207507462686571 1.4165402985074618
C 3.94864776119403 -1.4275492537313434 -3.522959701492538
H 4.81734776119403 -2.087049253731343 -3.615159701492538
H 3.4305477611940303 -1.3641492537313429 -4.484459701492538
H 4.26984776119403 -0.441449253731343 -3.176459701492538
C 2.60904776119403 -3.4296492537313434 -2.8992597014925376
H 1.9825477611940296 -3.869549253731343 -2.119359701492538
H 2.06294776119403 -3.373349253731343 -3.845759701492538
H 3.5215477611940305 -4.019849253731343 -3.0234597014925377
C 3.7281477611940304 -2.060049253731343 -1.156659701492538
H 3.9048477611940298 -1.032549253731343 -0.8295597014925382
H 3.12924776119403 -2.623249253731343 -0.4404597014925382
H 4.68244776119403 -2.5769492537313434 -1.3005597014925383
C 3.1110477611940297 3.755250746268656 2.588740298507462
H 3.40124776119403 4.809350746268656 2.534540298507462
H 2.9823477611940303 3.461750746268656 3.634840298507462
H 3.86514776119403 3.1392507462686563 2.091540298507462
C 1.99744776119403 3.9574507462686572 0.40494029850746194
H 2.67914776119403 3.230350746268657 -0.04295970149253803
H 1.03214776119403 3.981150746268657 -0.10175970149253821
H 2.4399477611940297 4.958250746268657 0.368240298507462
C 0.7418477611940297 4.4992507462686575 2.475440298507462
H -0.18475223880597014 4.424250746268656 1.901240298507462
H 0.57844776119403 4.189650746268656 3.511940298507462
H 1.1210477611940297 5.524350746268658 2.4432402985074617
N 3.00114776119403 -2.025349253731343 -2.490159701492538
N 1.7831477611940298 3.586450746268657 1.862540298507462
C -3.55075223880597 -3.8435492537313434 0.6444402985074619
H -2.62515223880597 -2.2736492537313433 1.7424402985074618
H -4.67195223880597 -1.3478492537313436 1.5102402985074619
H -4.83415223880597 -1.6757492537313432 -0.1945597014925382
H -3.7169522388059697 0.17335074626865676 -0.900559701492538
H -3.9132522388059705 -4.043149253731343 -0.34225970149253815
H -4.35435223880597 -3.9354492537313432 1.3449402985074619
H -2.78115223880597 -4.545049253731343 0.8904402985074619
H -5.24235223880597 1.138950746268657 1.5249402985074618
H -5.92805223880597 0.6501507462686567 -0.006059701492538094
H -4.89895223880597 2.059650746268657 0.08004029850746197
O 3.775073428083326 3.4582332824814563 6.568230364651043
H 4.378087716387664 4.199204940255554 6.730409670902855
H 4.049034489229684 2.7881980761954592 7.212404334641171
O -0.011989290625101845 -4.826508561974505 0.9872152080116039
H -0.16265819052991629 -4.773917074866711 0.03144307251838674
H -0.7510054697825517 -4.328990862654861 1.3683886201316149
O 2.0535018634234445 -11.105343493538907 -2.770648200741929
H 2.335980888530974 -11.047595710473592 -1.8455329912542986
H 2.138878667309431 -10.197514027191877 -3.0985481941702324
O 0.9229317463756063 1.534790410355534 8.134169041201046
H 0.4566408593895439 1.507968625923516 8.983180676865501
H 1.763920910940578 1.0886244907402458 8.314821031387023
O 6.633572501184596 -0.3004306167289087 -6.877653604139301
H 6.647191444715674 0.5347136026736703 -6.386414340566492
H 6.250695860349524 -0.061397221747853246 -7.735109409581588
O 10.05855218287453 2.8440631196994857 -11.362847906032359
H 9.880303647626013 1.891788720705056 -11.343657137377685
H 10.539456538682199 2.975471169746548 -12.19376599420233
O 0.6636936673054358 -0.8222083508014502 4.426953402973241
H 0.6766400160025539 -0.4192445888725822 3.5458064484148375
H -0.2370305425934272 -1.169116369651498 4.51246754484231
O -7.337412769904025 -2.3376104217233893 -7.308360267401259
H -7.163048363107757 -2.4652875135821977 -8.252956991277149
H -7.713628390401868 -3.183880158108085 -7.0233141580210425
O 1.2790793980124344 -8.504212832283836 2.336779299012014
H 2.180715693035368 -8.543533263616315 1.9839716289180283
H 1.3369277535295594 -7.856641536455841 3.0552964726993355
O 0.08155980643140576 12.90535186842076 0.41223950179127844
H -0.1972876286722263 13.573048266251979 -0.23227037800835854
H -0.7465322501605018 12.481172518368519 0.6829743704333537
C -3.1259965055786947 -7.3394031221318485 3.1348578434364
O -4.038535171758782 -6.5886409372533885 3.325770341148804
O -2.213457839398608 -8.09016530701031 2.943945345723996
C 4.155281385249071 -2.7138388420171697 4.150141099979589
O 4.2629162662872675 -3.2608560111784906 3.0634201387265962
O 4.608627190629359 -3.1490136252221674 5.21490959730968
O 3.576346379239255 -1.6404264825247996 4.353287721180724