104

C -5.0710522388059704 1.0783507462686561 0.47044029850746183
C -3.8153522388059704 0.1782507462686569 0.19534029850746193
C -4.11845223880597 -1.3219492537313435 0.5608402985074619
C -2.96945223880597 -2.3874492537313436 0.7034402985074619
C -2.52015223880597 0.7359507462686565 0.7384402985074618
C -2.20305223880597 0.7852507462686571 2.097440298507462
C -1.5755522388059702 1.205650746268656 -0.18965970149253808
C -0.9533522388059701 1.2695507462686564 2.508640298507462
H -2.91125223880597 0.4298507462686567 2.840840298507462
C -0.32655223880597006 1.6562507462686575 0.21554029850746192
H -1.7850522388059702 1.178550746268657 -1.2573597014925382
C 0.004447761194029898 1.6956507462686563 1.569740298507462
H -0.7158522388059702 1.2676507462686573 3.5705402985074617
H 0.3943477611940298 1.9193507462686572 -0.5551597014925382
C -1.76045223880597 -2.1592492537313435 -0.1734597014925381
C -0.5287522388059701 -1.936549253731343 0.464840298507462
C -1.8068522388059702 -2.121249253731343 -1.5681597014925381
C 0.6114477611940299 -1.614449253731343 -0.2582597014925381
H -0.4544522388059702 -1.954049253731343 1.5506402985074619
C -0.6479522388059701 -1.8270492537313432 -2.2998597014925384
H -2.74345223880597 -2.290549253731343 -2.092259701492538
C 0.5698477611940298 -1.5506492537313434 -1.6506597014925382
H 1.5072477611940298 -1.351949253731343 0.2991402985074618
H -0.7173522388059701 -1.7640492537313435 -3.3840597014925375
C 1.7791477611940298 -1.082849253731343 -2.4255597014925376
H 1.4739477611940297 -0.9102492537313429 -3.464259701492538
H 2.1252477611940295 -0.1337492537313434 -2.0010597014925384
C 1.3965477611940298 2.0964507462686566 1.997440298507462
H 1.51704776119403 1.8448507462686567 3.057640298507462
H 2.1256477611940294 1.5207507462686571 1.4165402985074618
C 3.94864776119403 -1.4275492537313434 -3.522959701492538
H 4.81734776119403 -2.087049253731343 -3.615159701492538
H 3.4305477611940303 -1.3641492537313429 -4.484459701492538
H 4.26984776119403 -0.441449253731343 -3.176459701492538
C 2.60904776119403 -3.4296492537313434 -2.8992597014925376
H 1.9825477611940296 -3.869549253731343 -2.119359701492538
H 2.06294776119403 -3.373349253731343 -3.845759701492538
H 3.5215477611940305 -4.019849253731343 -3.0234597014925377
C 3.7281477611940304 -2.060049253731343 -1.156659701492538
H 3.9048477611940298 -1.032549253731343 -0.8295597014925382
H 3.12924776119403 -2.623249253731343 -0.4404597014925382
H 4.68244776119403 -2.5769492537313434 -1.3005597014925383
C 3.1110477611940297 3.755250746268656 2.588740298507462
H 3.40124776119403 4.809350746268656 2.534540298507462
H 2.9823477611940303 3.461750746268656 3.634840298507462
H 3.86514776119403 3.1392507462686563 2.091540298507462
C 1.99744776119403 3.9574507462686572 0.40494029850746194
H 2.67914776119403 3.230350746268657 -0.04295970149253803
H 1.03214776119403 3.981150746268657 -0.10175970149253821
H 2.4399477611940297 4.958250746268657 0.368240298507462
C 0.7418477611940297 4.4992507462686575 2.475440298507462
H -0.18475223880597014 4.424250746268656 1.901240298507462
H 0.57844776119403 4.189650746268656 3.511940298507462
H 1.1210477611940297 5.524350746268658 2.4432402985074617
N 3.00114776119403 -2.025349253731343 -2.490159701492538
N 1.7831477611940298 3.586450746268657 1.862540298507462
C -3.55075223880597 -3.8435492537313434 0.6444402985074619
H -2.62515223880597 -2.2736492537313433 1.7424402985074618
H -4.67195223880597 -1.3478492537313436 1.5102402985074619
H -4.83415223880597 -1.6757492537313432 -0.1945597014925382
H -3.7169522388059697 0.17335074626865676 -0.900559701492538
H -3.9132522388059705 -4.043149253731343 -0.34225970149253815
H -4.35435223880597 -3.9354492537313432 1.3449402985074619
H -2.78115223880597 -4.545049253731343 0.8904402985074619
H -5.24235223880597 1.138950746268657 1.5249402985074618
H -5.92805223880597 0.6501507462686567 -0.006059701492538094
H -4.89895223880597 2.059650746268657 0.08004029850746197
O 1.2820179709113497 -10.468857354978699 1.3418147200304076
H 1.2358314990164934 -10.444197959064777 0.3742269561004026
H 0.38538587270478675 -10.23470142249004 1.6249822041207644
O -4.978157446726196 3.717466122632736 4.831266996565127
H -5.621265938455822 3.0054705557100245 4.695468846917738
H -4.3037824118390695 3.3181916921141212 5.401144339293386
O 4.580382677835238 0.36003437940128125 6.208505947808075
H 4.653538303004346 0.3049074002080285 5.2438419505680285
H 4.252490424282442 1.2579143462810412 6.367440460850615
O -13.207436150024737 5.508449526436891 13.10962355859879
H -12.840258739330702 4.8081858738526195 13.669783288359293
H -12.917217241704746 5.269983006115168 12.216388624083127
O -8.360588705802499 7.419440551177225 10.174347100468827
H -7.738183600385544 7.775943531534644 10.825872131950494
H -8.26664711186297 8.011121024123586 9.412736216117722
O 9.028067374860791 -1.1260313855157342 -9.87248580715426
H 8.468170023242418 -1.1412369153680733 -10.663214018623057
H 8.440931906041548 -1.4299855205542995 -9.164075072236045
O -2.7647574281616354 6.728623580658302 2.56710780642091
H -2.545119763172569 6.666013631143145 3.5088119251545287
H -2.574234700460755 7.651952182973654 2.343216478594675
O -4.304303528361409 -0.8970273661649409 12.25591283581113
H -4.336437508827035 -0.8633741325469846 13.22379827534749
H -4.059672972452465 -1.8142841654855721 12.06159917310119
O -0.21659353485150226 7.931477428665882 0.23781197839841312
H -0.3724782422274089 8.245202031106455 1.1412743122728437
H -0.7531797755647038 7.127177241679046 0.17348189375509665
O 12.949039500509922 -5.527951120073937 -13.451314336327005
H 13.01869229626526 -5.614883255601424 -14.413893501256362
H 12.912653210438037 -6.443372608213742 -13.135653947227091
C 2.8049228210871027 1.8186020812389097 -7.551643761688072
O 1.9607603448663673 1.542965788055962 -6.7490027429746995
O 3.649085297307838 2.0942383744218573 -8.354284780401445
C -12.398562216023237 -3.405303898267094 -12.510904311885463
O -11.726537158709553 -4.031662030561462 -11.706023382150356
O -12.052445051157742 -2.3549760547848564 -13.063756727536715
O -13.528768474568068 -3.724844066030683 -12.897137762963583