104

C -5.0710522388059704 1.0783507462686561 0.47044029850746183
C -3.8153522388059704 0.1782507462686569 0.19534029850746193
C -4.11845223880597 -1.3219492537313435 0.5608402985074619
C -2.96945223880597 -2.3874492537313436 0.7034402985074619
C -2.52015223880597 0.7359507462686565 0.7384402985074618
C -2.20305223880597 0.7852507462686571 2.097440298507462
C -1.5755522388059702 1.205650746268656 -0.18965970149253808
C -0.9533522388059701 1.2695507462686564 2.508640298507462
H -2.91125223880597 0.4298507462686567 2.840840298507462
C -0.32655223880597006 1.6562507462686575 0.21554029850746192
H -1.7850522388059702 1.178550746268657 -1.2573597014925382
C 0.004447761194029898 1.6956507462686563 1.569740298507462
H -0.7158522388059702 1.2676507462686573 3.5705402985074617
H 0.3943477611940298 1.9193507462686572 -0.5551597014925382
C -1.76045223880597 -2.1592492537313435 -0.1734597014925381
C -0.5287522388059701 -1.936549253731343 0.464840298507462
C -1.8068522388059702 -2.121249253731343 -1.5681597014925381
C 0.6114477611940299 -1.614449253731343 -0.2582597014925381
H -0.4544522388059702 -1.954049253731343 1.5506402985074619
C -0.6479522388059701 -1.8270492537313432 -2.2998597014925384
H -2.74345223880597 -2.290549253731343 -2.092259701492538
C 0.5698477611940298 -1.5506492537313434 -1.6506597014925382
H 1.5072477611940298 -1.351949253731343 0.2991402985074618
H -0.7173522388059701 -1.7640492537313435 -3.3840597014925375
C 1.7791477611940298 -1.082849253731343 -2.4255597014925376
H 1.4739477611940297 -0.9102492537313429 -3.464259701492538
H 2.1252477611940295 -0.1337492537313434 -2.0010597014925384
C 1.3965477611940298 2.0964507462686566 1.997440298507462
H 1.51704776119403 1.8448507462686567 3.057640298507462
H 2.1256477611940294 1.5207507462686571 1.4165402985074618
C 3.94864776119403 -1.4275492537313434 -3.522959701492538
H 4.81734776119403 -2.087049253731343 -3.615159701492538
H 3.4305477611940303 -1.3641492537313429 -4.484459701492538
H 4.26984776119403 -0.441449253731343 -3.176459701492538
C 2.60904776119403 -3.4296492537313434 -2.8992597014925376
H 1.9825477611940296 -3.869549253731343 -2.119359701492538
H 2.06294776119403 -3.373349253731343 -3.845759701492538
H 3.5215477611940305 -4.019849253731343 -3.0234597014925377
C 3.7281477611940304 -2.060049253731343 -1.156659701492538
H 3.9048477611940298 -1.032549253731343 -0.8295597014925382
H 3.12924776119403 -2.623249253731343 -0.4404597014925382
H 4.68244776119403 -2.5769492537313434 -1.3005597014925383
C 3.1110477611940297 3.755250746268656 2.588740298507462
H 3.40124776119403 4.809350746268656 2.534540298507462
H 2.9823477611940303 3.461750746268656 3.634840298507462
H 3.86514776119403 3.1392507462686563 2.091540298507462
C 1.99744776119403 3.9574507462686572 0.40494029850746194
H 2.67914776119403 3.230350746268657 -0.04295970149253803
H 1.03214776119403 3.981150746268657 -0.10175970149253821
H 2.4399477611940297 4.958250746268657 0.368240298507462
C 0.7418477611940297 4.4992507462686575 2.475440298507462
H -0.18475223880597014 4.424250746268656 1.901240298507462
H 0.57844776119403 4.189650746268656 3.511940298507462
H 1.1210477611940297 5.524350746268658 2.4432402985074617
N 3.00114776119403 -2.025349253731343 -2.490159701492538
N 1.7831477611940298 3.586450746268657 1.862540298507462
C -3.55075223880597 -3.8435492537313434 0.6444402985074619
H -2.62515223880597 -2.2736492537313433 1.7424402985074618
H -4.67195223880597 -1.3478492537313436 1.5102402985074619
H -4.83415223880597 -1.6757492537313432 -0.1945597014925382
H -3.7169522388059697 0.17335074626865676 -0.900559701492538
H -3.9132522388059705 -4.043149253731343 -0.34225970149253815
H -4.35435223880597 -3.9354492537313432 1.3449402985074619
H -2.78115223880597 -4.545049253731343 0.8904402985074619
H -5.24235223880597 1.138950746268657 1.5249402985074618
H -5.92805223880597 0.6501507462686567 -0.006059701492538094
H -4.89895223880597 2.059650746268657 0.08004029850746197
O -2.2241130559401023 3.054019561661756 5.233486611721008
H -2.303258107508795 3.0389193422517433 4.267838952848498
H -3.0859530484451927 3.379507667198398 5.533905094462987
O 5.0664592783706945 6.905764991865389 6.669060341816303
H 5.3377346606757845 6.92219734359276 5.738949057253033
H 4.115116789082197 6.725336575502812 6.63225003153158
O -4.612407369011403 -2.0664514438012445 13.282015974546631
H -4.194833074503632 -2.4500953502059244 12.496257475677611
H -3.983786100978227 -2.252531959278505 13.995578366658266
O -0.7426966263203705 -11.399394663173132 -0.7705843733608745
H 0.09600383103093901 -11.829509895108949 -0.545751575496541
H -1.3883576372656847 -12.121726259063822 -0.7526715616585413
O 8.656856174849 3.545212464528242 -9.389453741321947
H 7.843744291808673 4.013196389253896 -9.631956254209934
H 8.650497091536522 3.551625558068281 -8.420495342529373
O 5.151041424756738 -8.382531883895533 5.405898059889798
H 5.998934049567462 -8.235902706792649 4.960313793881994
H 5.280727525343963 -8.001122752504271 6.287187191846979
O 7.721645527993381 -5.64136182418284 -10.84888915163943
H 8.600681841486228 -5.236218662374588 -10.802829028963535
H 7.708982615667399 -6.258606840535611 -10.102022239305585
O -0.4453058247516159 0.22629122705924243 6.939044763142721
H -0.9319430357184649 -0.4497757364456084 6.4439841177064885
H 0.4835117156715656 -0.028068657041661976 6.831522810675304
O 4.291669629518063 -1.077435663101416 5.204323763232907
H 4.066518006199667 -1.7323940085991032 4.526604301301921
H 5.020730268934649 -0.5747435165450254 4.810962435514985
O 8.503282442238566 -0.3712499831212869 -11.289570212718967
H 8.39065947844472 -1.3321933559127643 -11.23598608060478
H 8.763409275309598 -0.11565506979073342 -10.391813444269973
C 6.767649398675263 0.9649131791410849 6.929917695254836
O 7.275430225784941 1.3018333160036604 7.9601903340725
O 6.259868571565585 0.6279930422785094 5.899645056437171
C -12.098470868867803 -0.031103619520410422 13.96000790176133
O -11.977567819328227 -0.7772102515875698 13.000589929865123
O -12.89039040742784 -0.19550738905743476 14.895136935162002
O -11.447603667655354 1.003821260165415 14.144265233211545