104

C -5.0710522388059704 1.0783507462686561 0.47044029850746183
C -3.8153522388059704 0.1782507462686569 0.19534029850746193
C -4.11845223880597 -1.3219492537313435 0.5608402985074619
C -2.96945223880597 -2.3874492537313436 0.7034402985074619
C -2.52015223880597 0.7359507462686565 0.7384402985074618
C -2.20305223880597 0.7852507462686571 2.097440298507462
C -1.5755522388059702 1.205650746268656 -0.18965970149253808
C -0.9533522388059701 1.2695507462686564 2.508640298507462
H -2.91125223880597 0.4298507462686567 2.840840298507462
C -0.32655223880597006 1.6562507462686575 0.21554029850746192
H -1.7850522388059702 1.178550746268657 -1.2573597014925382
C 0.004447761194029898 1.6956507462686563 1.569740298507462
H -0.7158522388059702 1.2676507462686573 3.5705402985074617
H 0.3943477611940298 1.9193507462686572 -0.5551597014925382
C -1.76045223880597 -2.1592492537313435 -0.1734597014925381
C -0.5287522388059701 -1.936549253731343 0.464840298507462
C -1.8068522388059702 -2.121249253731343 -1.5681597014925381
C 0.6114477611940299 -1.614449253731343 -0.2582597014925381
H -0.4544522388059702 -1.954049253731343 1.5506402985074619
C -0.6479522388059701 -1.8270492537313432 -2.2998597014925384
H -2.74345223880597 -2.290549253731343 -2.092259701492538
C 0.5698477611940298 -1.5506492537313434 -1.6506597014925382
H 1.5072477611940298 -1.351949253731343 0.2991402985074618
H -0.7173522388059701 -1.7640492537313435 -3.3840597014925375
C 1.7791477611940298 -1.082849253731343 -2.4255597014925376
H 1.4739477611940297 -0.9102492537313429 -3.464259701492538
H 2.1252477611940295 -0.1337492537313434 -2.0010597014925384
C 1.3965477611940298 2.0964507462686566 1.997440298507462
H 1.51704776119403 1.8448507462686567 3.057640298507462
H 2.1256477611940294 1.5207507462686571 1.4165402985074618
C 3.94864776119403 -1.4275492537313434 -3.522959701492538
H 4.81734776119403 -2.087049253731343 -3.615159701492538
H 3.4305477611940303 -1.3641492537313429 -4.484459701492538
H 4.26984776119403 -0.441449253731343 -3.176459701492538
C 2.60904776119403 -3.4296492537313434 -2.8992597014925376
H 1.9825477611940296 -3.869549253731343 -2.119359701492538
H 2.06294776119403 -3.373349253731343 -3.845759701492538
H 3.5215477611940305 -4.019849253731343 -3.0234597014925377
C 3.7281477611940304 -2.060049253731343 -1.156659701492538
H 3.9048477611940298 -1.032549253731343 -0.8295597014925382
H 3.12924776119403 -2.623249253731343 -0.4404597014925382
H 4.68244776119403 -2.5769492537313434 -1.3005597014925383
C 3.1110477611940297 3.755250746268656 2.588740298507462
H 3.40124776119403 4.809350746268656 2.534540298507462
H 2.9823477611940303 3.461750746268656 3.634840298507462
H 3.86514776119403 3.1392507462686563 2.091540298507462
C 1.99744776119403 3.9574507462686572 0.40494029850746194
H 2.67914776119403 3.230350746268657 -0.04295970149253803
H 1.03214776119403 3.981150746268657 -0.10175970149253821
H 2.4399477611940297 4.958250746268657 0.368240298507462
C 0.7418477611940297 4.4992507462686575 2.475440298507462
H -0.18475223880597014 4.424250746268656 1.901240298507462
H 0.57844776119403 4.189650746268656 3.511940298507462
H 1.1210477611940297 5.524350746268658 2.4432402985074617
N 3.00114776119403 -2.025349253731343 -2.490159701492538
N 1.7831477611940298 3.586450746268657 1.862540298507462
C -3.55075223880597 -3.8435492537313434 0.6444402985074619
H -2.62515223880597 -2.2736492537313433 1.7424402985074618
H -4.67195223880597 -1.3478492537313436 1.5102402985074619
H -4.83415223880597 -1.6757492537313432 -0.1945597014925382
H -3.7169522388059697 0.17335074626865676 -0.900559701492538
H -3.9132522388059705 -4.043149253731343 -0.34225970149253815
H -4.35435223880597 -3.9354492537313432 1.3449402985074619
H -2.78115223880597 -4.545049253731343 0.8904402985074619
H -5.24235223880597 1.138950746268657 1.5249402985074618
H -5.92805223880597 0.6501507462686567 -0.006059701492538094
H -4.89895223880597 2.059650746268657 0.08004029850746197
O -2.562612270347925 0.3293831707817475 -8.61745272747338
H -1.7233537594566242 0.4340624741505146 -9.09037423495929
H -2.754972498368762 1.2180829008128526 -8.282531428033629
O 4.442018965399032 -0.6371997940880807 13.671833864000817
H 4.375996135280762 -0.23593074472610803 14.551374364959877
H 3.519962379038609 -0.7743152639652342 13.407309869305195
O 2.1464963055594533 -1.4001323213694146 7.523940125265306
H 2.326585091168842 -2.071682691675211 6.848991618829531
H 1.3681096393503256 -0.9319583445942825 7.186465282294164
O -4.607922445405542 8.664249667298455 -5.158635337012173
H -5.165610033337134 9.38863305484509 -4.83735567843805
H -4.507064946439571 8.086639109061771 -4.387171953424958
O -2.1357426058286597 2.9183761415166347 8.354141144929377
H -3.06763984632187 2.7312252540866 8.165701670839443
H -1.9929690713600077 2.5349078708875052 9.232508805750307
O -9.320317552552298 0.2557209274976257 -10.795769272548712
H -10.039124475493944 -0.3415365815576835 -10.539707888681068
H -9.596498555014296 0.5975987431724974 -11.659369618384947
O 1.8424941120106657 -10.68777223340149 -1.539194789137571
H 1.7033122133556535 -11.534796409809779 -1.0895885163091674
H 0.9664053225423217 -10.45935648779952 -1.8845303135612625
O 12.059213725746785 3.90981864845176 12.74912762389865
H 12.43189789141153 3.076375933247928 12.424401416092076
H 11.407916272453509 4.153620592768664 12.074343077853776
O 8.02993808219543 2.058614619354675 -8.985370810582408
H 7.693834492372554 1.3192840662314582 -8.45679530317907
H 8.992481254745782 1.9523346062318119 -8.951061277106868
O 0.6014752472400499 -5.970353779542004 -0.702987488137877
H 0.00814113971903696 -5.252444341066062 -0.4355402374520597
H 1.399803392324543 -5.513126980206877 -1.0072534425851456
C -5.092246086726594 -10.626371485511156 5.185809130341782
O -4.821930038625017 -11.057575991631982 6.269234330962407
O -5.362562134828171 -10.19516697939033 4.1023839297211575
C 5.076632328523461 3.7760341958196078 6.4018937357572865
O 4.100821438818506 3.4963134850380575 5.722684688340301
O 5.09077224441962 3.839967898132251 7.636537007551633
O 6.201018117372041 4.0384633190865316 5.959699279101947