104

C -5.0710522388059704 1.0783507462686561 0.47044029850746183
C -3.8153522388059704 0.1782507462686569 0.19534029850746193
C -4.11845223880597 -1.3219492537313435 0.5608402985074619
C -2.96945223880597 -2.3874492537313436 0.7034402985074619
C -2.52015223880597 0.7359507462686565 0.7384402985074618
C -2.20305223880597 0.7852507462686571 2.097440298507462
C -1.5755522388059702 1.205650746268656 -0.18965970149253808
C -0.9533522388059701 1.2695507462686564 2.508640298507462
H -2.91125223880597 0.4298507462686567 2.840840298507462
C -0.32655223880597006 1.6562507462686575 0.21554029850746192
H -1.7850522388059702 1.178550746268657 -1.2573597014925382
C 0.004447761194029898 1.6956507462686563 1.569740298507462
H -0.7158522388059702 1.2676507462686573 3.5705402985074617
H 0.3943477611940298 1.9193507462686572 -0.5551597014925382
C -1.76045223880597 -2.1592492537313435 -0.1734597014925381
C -0.5287522388059701 -1.936549253731343 0.464840298507462
C -1.8068522388059702 -2.121249253731343 -1.5681597014925381
C 0.6114477611940299 -1.614449253731343 -0.2582597014925381
H -0.4544522388059702 -1.954049253731343 1.5506402985074619
C -0.6479522388059701 -1.8270492537313432 -2.2998597014925384
H -2.74345223880597 -2.290549253731343 -2.092259701492538
C 0.5698477611940298 -1.5506492537313434 -1.6506597014925382
H 1.5072477611940298 -1.351949253731343 0.2991402985074618
H -0.7173522388059701 -1.7640492537313435 -3.3840597014925375
C 1.7791477611940298 -1.082849253731343 -2.4255597014925376
H 1.4739477611940297 -0.9102492537313429 -3.464259701492538
H 2.1252477611940295 -0.1337492537313434 -2.0010597014925384
C 1.3965477611940298 2.0964507462686566 1.997440298507462
H 1.51704776119403 1.8448507462686567 3.057640298507462
H 2.1256477611940294 1.5207507462686571 1.4165402985074618
C 3.94864776119403 -1.4275492537313434 -3.522959701492538
H 4.81734776119403 -2.087049253731343 -3.615159701492538
H 3.4305477611940303 -1.3641492537313429 -4.484459701492538
H 4.26984776119403 -0.441449253731343 -3.176459701492538
C 2.60904776119403 -3.4296492537313434 -2.8992597014925376
H 1.9825477611940296 -3.869549253731343 -2.119359701492538
H 2.06294776119403 -3.373349253731343 -3.845759701492538
H 3.5215477611940305 -4.019849253731343 -3.0234597014925377
C 3.7281477611940304 -2.060049253731343 -1.156659701492538
H 3.9048477611940298 -1.032549253731343 -0.8295597014925382
H 3.12924776119403 -2.623249253731343 -0.4404597014925382
H 4.68244776119403 -2.5769492537313434 -1.3005597014925383
C 3.1110477611940297 3.755250746268656 2.588740298507462
H 3.40124776119403 4.809350746268656 2.534540298507462
H 2.9823477611940303 3.461750746268656 3.634840298507462
H 3.86514776119403 3.1392507462686563 2.091540298507462
C 1.99744776119403 3.9574507462686572 0.40494029850746194
H 2.67914776119403 3.230350746268657 -0.04295970149253803
H 1.03214776119403 3.981150746268657 -0.10175970149253821
H 2.4399477611940297 4.958250746268657 0.368240298507462
C 0.7418477611940297 4.4992507462686575 2.475440298507462
H -0.18475223880597014 4.424250746268656 1.901240298507462
H 0.57844776119403 4.189650746268656 3.511940298507462
H 1.1210477611940297 5.524350746268658 2.4432402985074617
N 3.00114776119403 -2.025349253731343 -2.490159701492538
N 1.7831477611940298 3.586450746268657 1.862540298507462
C -3.55075223880597 -3.8435492537313434 0.6444402985074619
H -2.62515223880597 -2.2736492537313433 1.7424402985074618
H -4.67195223880597 -1.3478492537313436 1.5102402985074619
H -4.83415223880597 -1.6757492537313432 -0.1945597014925382
H -3.7169522388059697 0.17335074626865676 -0.900559701492538
H -3.9132522388059705 -4.043149253731343 -0.34225970149253815
H -4.35435223880597 -3.9354492537313432 1.3449402985074619
H -2.78115223880597 -4.545049253731343 0.8904402985074619
H -5.24235223880597 1.138950746268657 1.5249402985074618
H -5.92805223880597 0.6501507462686567 -0.006059701492538094
H -4.89895223880597 2.059650746268657 0.08004029850746197
O 1.1694791108620026 -11.131284718627313 0.715167948058506
H 0.35206973536523084 -11.045996099077287 0.2018112288804772
H 0.9577461805396201 -10.713603694308919 1.5635037733313943
O -7.34436911721361 2.833789433087224 8.293560588132175
H -7.6025567779955265 3.3817787388151253 9.049876798144771
H -8.188195993424007 2.567068068980717 7.898873546016314
O -7.630394364068185 0.8213773505726525 10.268074719456708
H -7.616376519789744 0.09435701595038681 9.62759654653626
H -8.353983080424367 1.3887397987952967 9.96232782052097
O -9.942810890522141 -0.6948119601004552 10.625539910073714
H -9.517674463918524 -1.4786531279067296 11.004775192354787
H -10.665924546574217 -0.5001374562317781 11.240495536338312
O -0.5306051750649117 0.2128103748843812 6.57736747218675
H -0.36380300920253106 1.1669501232914474 6.604967016989526
H -1.4177440897528675 0.11924946780698198 6.955775779459634
O 9.179666719952422 -3.3621573952126322 -12.169572706246868
H 8.614355770830382 -3.154831381958611 -12.928787308273812
H 9.583603163689103 -2.51196006087866 -11.939438427155785
O -4.924458151386825 4.633783628500659 7.15991295466525
H -5.077258080843031 5.070825245123165 8.01115567198985
H -5.528388092063843 5.086823160762121 6.552470979442787
O 3.9084982715859553 -0.03323737910188473 4.158196228820896
H 3.5170895883660993 -0.6809536510944372 3.5530266405266975
H 3.2050963108652444 0.6204123505514371 4.288310243740113
O 2.721007555595546 1.4145171480508956 -6.061863849346581
H 1.9948957701187024 1.1662506922814795 -6.65355025178568
H 3.509200472883972 1.0525203703324504 -6.493919635510616
O 0.36314184630978963 -6.3632087291260335 -0.013726556310705323
H 0.32860639382094914 -6.18121525701741 0.9374059452532144
H -0.28679756086857533 -5.752498154384133 -0.39263723865557143
C -1.3687071420315058 0.35917253878007643 -6.770754117917177
O -1.1245727154021534 0.37791019040776846 -7.942447567350874
O -1.6128415686608581 0.34043488715238435 -5.599060668483479
C -3.26018829354229 -4.047523609041491 -8.150055211412484
O -4.120435792370402 -4.901373818986942 -8.30068574728117
O -3.4278851543501085 -2.9581772448027035 -7.589846566624723
O -2.0887965899500136 -4.140656802231501 -8.534523766019252