104

C -5.0710522388059704 1.0783507462686561 0.47044029850746183
C -3.8153522388059704 0.1782507462686569 0.19534029850746193
C -4.11845223880597 -1.3219492537313435 0.5608402985074619
C -2.96945223880597 -2.3874492537313436 0.7034402985074619
C -2.52015223880597 0.7359507462686565 0.7384402985074618
C -2.20305223880597 0.7852507462686571 2.097440298507462
C -1.5755522388059702 1.205650746268656 -0.18965970149253808
C -0.9533522388059701 1.2695507462686564 2.508640298507462
H -2.91125223880597 0.4298507462686567 2.840840298507462
C -0.32655223880597006 1.6562507462686575 0.21554029850746192
H -1.7850522388059702 1.178550746268657 -1.2573597014925382
C 0.004447761194029898 1.6956507462686563 1.569740298507462
H -0.7158522388059702 1.2676507462686573 3.5705402985074617
H 0.3943477611940298 1.9193507462686572 -0.5551597014925382
C -1.76045223880597 -2.1592492537313435 -0.1734597014925381
C -0.5287522388059701 -1.936549253731343 0.464840298507462
C -1.8068522388059702 -2.121249253731343 -1.5681597014925381
C 0.6114477611940299 -1.614449253731343 -0.2582597014925381
H -0.4544522388059702 -1.954049253731343 1.5506402985074619
C -0.6479522388059701 -1.8270492537313432 -2.2998597014925384
H -2.74345223880597 -2.290549253731343 -2.092259701492538
C 0.5698477611940298 -1.5506492537313434 -1.6506597014925382
H 1.5072477611940298 -1.351949253731343 0.2991402985074618
H -0.7173522388059701 -1.7640492537313435 -3.3840597014925375
C 1.7791477611940298 -1.082849253731343 -2.4255597014925376
H 1.4739477611940297 -0.9102492537313429 -3.464259701492538
H 2.1252477611940295 -0.1337492537313434 -2.0010597014925384
C 1.3965477611940298 2.0964507462686566 1.997440298507462
H 1.51704776119403 1.8448507462686567 3.057640298507462
H 2.1256477611940294 1.5207507462686571 1.4165402985074618
C 3.94864776119403 -1.4275492537313434 -3.522959701492538
H 4.81734776119403 -2.087049253731343 -3.615159701492538
H 3.4305477611940303 -1.3641492537313429 -4.484459701492538
H 4.26984776119403 -0.441449253731343 -3.176459701492538
C 2.60904776119403 -3.4296492537313434 -2.8992597014925376
H 1.9825477611940296 -3.869549253731343 -2.119359701492538
H 2.06294776119403 -3.373349253731343 -3.845759701492538
H 3.5215477611940305 -4.019849253731343 -3.0234597014925377
C 3.7281477611940304 -2.060049253731343 -1.156659701492538
H 3.9048477611940298 -1.032549253731343 -0.8295597014925382
H 3.12924776119403 -2.623249253731343 -0.4404597014925382
H 4.68244776119403 -2.5769492537313434 -1.3005597014925383
C 3.1110477611940297 3.755250746268656 2.588740298507462
H 3.40124776119403 4.809350746268656 2.534540298507462
H 2.9823477611940303 3.461750746268656 3.634840298507462
H 3.86514776119403 3.1392507462686563 2.091540298507462
C 1.99744776119403 3.9574507462686572 0.40494029850746194
H 2.67914776119403 3.230350746268657 -0.04295970149253803
H 1.03214776119403 3.981150746268657 -0.10175970149253821
H 2.4399477611940297 4.958250746268657 0.368240298507462
C 0.7418477611940297 4.4992507462686575 2.475440298507462
H -0.18475223880597014 4.424250746268656 1.901240298507462
H 0.57844776119403 4.189650746268656 3.511940298507462
H 1.1210477611940297 5.524350746268658 2.4432402985074617
N 3.00114776119403 -2.025349253731343 -2.490159701492538
N 1.7831477611940298 3.586450746268657 1.862540298507462
C -3.55075223880597 -3.8435492537313434 0.6444402985074619
H -2.62515223880597 -2.2736492537313433 1.7424402985074618
H -4.67195223880597 -1.3478492537313436 1.5102402985074619
H -4.83415223880597 -1.6757492537313432 -0.1945597014925382
H -3.7169522388059697 0.17335074626865676 -0.900559701492538
H -3.9132522388059705 -4.043149253731343 -0.34225970149253815
H -4.35435223880597 -3.9354492537313432 1.3449402985074619
H -2.78115223880597 -4.545049253731343 0.8904402985074619
H -5.24235223880597 1.138950746268657 1.5249402985074618
H -5.92805223880597 0.6501507462686567 -0.006059701492538094
H -4.89895223880597 2.059650746268657 0.08004029850746197
O -2.0764589102719277 0.09810926277288187 -11.31408341997239
H -1.519987789816774 0.8226787081867983 -10.991118456281345
H -2.4660326577342326 -0.2746011965266021 -10.508924334376912
O 7.947881696497273 6.032374755719521 11.138863649409979
H 7.548156902059006 5.1770030137115945 11.356869678192698
H 8.736986435542539 6.071749979102714 11.69986743451292
O 0.7543309604243917 0.4428230438639386 10.257321581521666
H 0.3774925253530226 0.36726303150160244 11.14684439476749
H 1.6809423472484086 0.6784444481286754 10.41491547721685
O -0.8627046920188699 -8.869416709459973 0.34067826329556283
H -0.9764925714317609 -8.378830235992337 1.1685336778754931
H 0.09431031286780156 -9.00917172812907 0.2810732343251483
O 8.484965000250412 10.672411859979228 8.509081122458383
H 8.51036508694517 10.926233051395807 9.443905702411097
H 9.012074514504075 11.354742205963424 8.066878902617333
O 9.188056927652354 -9.030199491685668 -8.986043717668647
H 9.06537343684723 -8.196565524719334 -9.464552366601815
H 8.330524779761275 -9.474299281776153 -9.065893176495234
O 2.8393846767515982 7.447248479715952 5.873496021198675
H 3.620624992965028 7.1841249780445136 6.382806288217613
H 2.6037241356068694 6.649007396871486 5.3772730599134615
O -0.42944253821436396 9.625185661287667 -0.019510894990409977
H -0.7457847721957068 10.100391001074904 0.763480058301766
H 0.5271505751284217 9.556531440631716 0.11897433090491771
O 10.22159292866962 0.5942998495964869 -10.211169681935722
H 10.108244051647828 0.6466422722742124 -9.25024322285255
H 9.457526818937113 0.07822233397356904 -10.509211494651167
O 0.8871550551814655 0.07371285535865213 5.601744439898257
H 0.014992400613678125 -0.2819320060397175 5.37411229489627
H 0.8290570196298948 1.0098034082370877 5.358185331309003
C -2.14710964820713 8.036020537366094 2.5813075881644734
O -1.0345529820701476 8.463516918824466 2.692135228102178
O -3.2596663143441127 7.608524155907722 2.4704799482267688
C 3.8941554396207816 -2.3835755544430097 -8.494016832288276
O 3.6969420776665443 -1.1948223053724043 -8.693386090928584
O 3.7585844594357702 -3.279264188088817 -9.335440533516962
O 4.259826719282629 -2.874850432565241 -7.419967534650382