194

C -5.0710522388059704 1.0783507462686561 0.47044029850746183
C -3.8153522388059704 0.1782507462686569 0.19534029850746193
C -4.11845223880597 -1.3219492537313435 0.5608402985074619
C -2.96945223880597 -2.3874492537313436 0.7034402985074619
C -2.52015223880597 0.7359507462686565 0.7384402985074618
C -2.20305223880597 0.7852507462686571 2.097440298507462
C -1.5755522388059702 1.205650746268656 -0.18965970149253808
C -0.9533522388059701 1.2695507462686564 2.508640298507462
H -2.91125223880597 0.4298507462686567 2.840840298507462
C -0.32655223880597006 1.6562507462686575 0.21554029850746192
H -1.7850522388059702 1.178550746268657 -1.2573597014925382
C 0.004447761194029898 1.6956507462686563 1.569740298507462
H -0.7158522388059702 1.2676507462686573 3.5705402985074617
H 0.3943477611940298 1.9193507462686572 -0.5551597014925382
C -1.76045223880597 -2.1592492537313435 -0.1734597014925381
C -0.5287522388059701 -1.936549253731343 0.464840298507462
C -1.8068522388059702 -2.121249253731343 -1.5681597014925381
C 0.6114477611940299 -1.614449253731343 -0.2582597014925381
H -0.4544522388059702 -1.954049253731343 1.5506402985074619
C -0.6479522388059701 -1.8270492537313432 -2.2998597014925384
H -2.74345223880597 -2.290549253731343 -2.092259701492538
C 0.5698477611940298 -1.5506492537313434 -1.6506597014925382
H 1.5072477611940298 -1.351949253731343 0.2991402985074618
H -0.7173522388059701 -1.7640492537313435 -3.3840597014925375
C 1.7791477611940298 -1.082849253731343 -2.4255597014925376
H 1.4739477611940297 -0.9102492537313429 -3.464259701492538
H 2.1252477611940295 -0.1337492537313434 -2.0010597014925384
C 1.3965477611940298 2.0964507462686566 1.997440298507462
H 1.51704776119403 1.8448507462686567 3.057640298507462
H 2.1256477611940294 1.5207507462686571 1.4165402985074618
C 3.94864776119403 -1.4275492537313434 -3.522959701492538
H 4.81734776119403 -2.087049253731343 -3.615159701492538
H 3.4305477611940303 -1.3641492537313429 -4.484459701492538
H 4.26984776119403 -0.441449253731343 -3.176459701492538
C 2.60904776119403 -3.4296492537313434 -2.8992597014925376
H 1.9825477611940296 -3.869549253731343 -2.119359701492538
H 2.06294776119403 -3.373349253731343 -3.845759701492538
H 3.5215477611940305 -4.019849253731343 -3.0234597014925377
C 3.7281477611940304 -2.060049253731343 -1.156659701492538
H 3.9048477611940298 -1.032549253731343 -0.8295597014925382
H 3.12924776119403 -2.623249253731343 -0.4404597014925382
H 4.68244776119403 -2.5769492537313434 -1.3005597014925383
C 3.1110477611940297 3.755250746268656 2.588740298507462
H 3.40124776119403 4.809350746268656 2.534540298507462
H 2.9823477611940303 3.461750746268656 3.634840298507462
H 3.86514776119403 3.1392507462686563 2.091540298507462
C 1.99744776119403 3.9574507462686572 0.40494029850746194
H 2.67914776119403 3.230350746268657 -0.04295970149253803
H 1.03214776119403 3.981150746268657 -0.10175970149253821
H 2.4399477611940297 4.958250746268657 0.368240298507462
C 0.7418477611940297 4.4992507462686575 2.475440298507462
H -0.18475223880597014 4.424250746268656 1.901240298507462
H 0.57844776119403 4.189650746268656 3.511940298507462
H 1.1210477611940297 5.524350746268658 2.4432402985074617
N 3.00114776119403 -2.025349253731343 -2.490159701492538
N 1.7831477611940298 3.586450746268657 1.862540298507462
C -3.55075223880597 -3.8435492537313434 0.6444402985074619
H -2.62515223880597 -2.2736492537313433 1.7424402985074618
H -4.67195223880597 -1.3478492537313436 1.5102402985074619
H -4.83415223880597 -1.6757492537313432 -0.1945597014925382
H -3.7169522388059697 0.17335074626865676 -0.900559701492538
H -3.9132522388059705 -4.043149253731343 -0.34225970149253815
H -4.35435223880597 -3.9354492537313432 1.3449402985074619
H -2.78115223880597 -4.545049253731343 0.8904402985074619
H -5.24235223880597 1.138950746268657 1.5249402985074618
H -5.92805223880597 0.6501507462686567 -0.006059701492538094
H -4.89895223880597 2.059650746268657 0.08004029850746197
C 2.1598072031251294 -1.2562660766362121 3.6032590203457646
O 3.267149032897141 -1.7655227854805657 3.524346568006539
O 1.1945704494711404 -1.7396176482161816 4.206019944549285
O 1.8330680735196805 -0.17873321341088522 3.0925606218226216
O 4.494436725100326 -5.31288079514799 5.210541974106746
H 5.296461289385471 -5.726116959384257 5.5640385479947
H 3.9235654850922574 -6.063265889215813 4.9869571306301115
O 1.3516131004483862 2.3579556708315725 5.8706699133120495
H 1.531160868502261 2.2981417265746904 6.8210131397093905
H 2.0650187365911545 2.9198468189631024 5.532597908746214
O -1.9522369179048549 -7.577730390738679 -0.9591756660222459
H -1.8560426705338005 -6.634799036435492 -1.1606563964772343
H -1.7907234775851397 -7.630898792862739 -0.00521105771035324
O -3.0665686216455685 -0.0319570622169385 11.014330080319201
H -2.6592508789676477 -0.474779637275744 11.773914032504905
H -2.4958674759214965 -0.2729421336210862 10.269220462927526
O -1.3999371317826452 9.492673215978433 0.46448113526057044
H -2.230099241797369 9.221118413285243 0.04489060017884938
H -0.8086241440495181 8.73806923716565 0.32347145474878625
O -1.212989114795907 -1.680567624452778 5.7378841643651395
H -0.6319430208241594 -2.212459850269476 6.302192106623561
H -0.6981977068885392 -1.5520301807814836 4.927063668682403
O 8.575607824081432 5.549369709296273 0.22324372423304162
H 8.959886348267965 4.812484033960854 0.7215376879075839
H 7.622665348033692 5.37507354807107 0.24523076191796367
O -6.957264682137122 2.353076873547469 4.277963166411632
H -6.582946568738506 2.8873276816513687 3.5614232994663015
H -6.6185615513326645 1.4615045605084016 4.106671181469472
O -1.3429467496573322 12.056915444024462 1.0791086537232246
H -1.6175956533502376 11.72514003672799 0.2110876771831725
H -1.7130256453001103 12.951723138183052 1.11547822581873
O -0.5276969790064574 5.659409471960004 7.146617741539091
H -0.6258015311759033 5.725396580767766 8.10838099474376
H -0.49017386116480877 4.70556699565919 6.980068978914525
O 8.31632227402055 3.9704577596933524 4.061333996332362
H 8.043008240352263 4.174615414364266 3.1543684799320717
H 8.739949229681743 3.1020325790658516 3.9882597027037585
O -8.740949064959857 -3.188637069345779 6.5210649360680195
H -8.98463330149621 -2.7769563623503375 7.363741828626151
H -8.710319638413372 -2.4468286395297616 5.898373972601128
O -8.735061604760073 3.392357438151524 -6.627943968997889
H -8.697261028578042 3.4031162048296713 -7.596149898684273
H -7.885842832317647 3.0069281459860786 -6.36482102896373
O 2.326167798285126 -7.831689774269105 7.9310186485600855
H 2.4051234910413704 -7.756900729462419 6.968137578926724
H 3.10670760052569 -7.365853700205349 8.26675115148336
O -0.8081335170371118 -4.182617640374678 -9.611174124062343
H -1.576795970228966 -4.207892287422808 -9.02169419889977
H -0.5075714921292858 -5.103259276581168 -9.64347569006685
O 8.417096312164997 -2.789873706448552 -4.0159738367071744
H 8.688595460745276 -3.688358081478725 -4.256767102906259
H 8.39119641888492 -2.3184857433271038 -4.862191614854321
O -8.728242894080664 4.450722077984107 -2.617444131804854
H -8.748020390980493 4.215157584081258 -3.557170462567525
H -8.934642942271608 3.619891077485445 -2.1634828856426207
O -4.163280802334705 4.90897958118434 -1.352150354954765
H -4.080674155353847 5.143492346035048 -0.4155889517906915
H -4.185251628029331 3.940231043128538 -1.349805758392101
O -4.525086127652525 -2.607741283057277 -4.069056289601219
H -4.798906640857321 -2.8613055944422516 -4.963312865445158
H -4.4983601291015365 -1.639546375763299 -4.098147298374657
O -0.49712554414831456 -7.65483986715613 -3.9420930504234417
H -0.06180277803451523 -8.243551625872678 -4.576821268916918
H -1.1196702457079026 -8.232710335341988 -3.4757608074263056
C -0.6960483867892364 17.436215971014164 -9.82313031855929
O -0.672664807954102 17.71449023932778 -10.987104071328389
O -0.7194319656243691 17.157941702700548 -8.659156565790187
O -8.035776421809093 -7.462446429176763 10.160018802820947
H -8.345557604645073 -6.699069691952236 9.649863010219141
H -8.756633921225253 -7.634965717010758 10.784169029257445
O -9.23156908494375 -1.3114281228672358 -15.09737416435194
H -9.724821683394751 -0.5330208583945382 -15.396959480476529
H -8.33698942428685 -0.9747040618723766 -14.938295310364001
O -0.02085822369432133 -15.323445385416532 -5.914267884078206
H 0.24257869638060914 -14.898547679084805 -5.084189402731127
H -0.34029634475357895 -14.590267912149946 -6.461416880064266
O -4.126608178133286 17.48837386599946 2.617756536394296
H -4.852377871502979 17.068168317022575 3.1031975788444557
H -3.452375604385853 17.646567463370054 3.2955080886233246
O 15.684991271444895 4.154617855085267 -2.8427974677915424
H 16.45158831161722 4.744784524802716 -2.897566408384271
H 15.996172415047964 3.328940226445999 -3.2432780462601136
O -4.76597746065762 -2.9404338712760607 -21.350836805844413
H -5.121844030069999 -2.3499932691216494 -22.031796596876305
H -3.819376873475946 -2.986855964419778 -21.552713654233383
O -11.40569844106047 0.9699813244678153 1.355326818551736
H -11.416977817202035 1.9389039196706488 1.3607246958441714
H -11.890942422811412 0.72578477182044 2.157740842699886
O 7.846626974175642 -9.175724612058287 15.615815309757332
H 8.276364525572568 -9.281360883843172 14.753763123458402
H 8.437808980975163 -9.636338802742255 16.230063098908456
O 8.044083693176828 -5.921467958266391 10.812091976410896
H 8.498852517133878 -6.725259674460862 11.10547150983794
H 8.758868489760038 -5.277931256764376 10.694171864922632
O -3.9262635450035606 -1.0063418494608372 -9.535708790672611
H -4.164512182898711 -0.7162396939349363 -8.642374764229908
H -4.446625157490599 -1.8132642761043165 -9.666330128629653
O -2.7338141064618093 5.1793781990841135 -10.44303564034298
H -3.572202765649629 5.423217578036357 -10.863290527664276
H -2.0606764700834397 5.479075638996058 -11.072344079267147
O -7.96204230864296 -4.157237821306247 16.35694248494478
H -7.704707686875435 -4.544967533123709 15.506994298339436
H -8.777396535810777 -4.625781348493663 16.590665379994345
O 16.871804423734357 -1.660244021886042 -11.848235456177736
H 16.356426116143098 -0.9188966771158569 -11.49644479205123
H 17.524462800775314 -1.2379412753055146 -12.426732973379671
O 15.25625027939065 1.3476613350581301 1.5955796716428243
H 15.617674540978816 1.2364765648761118 0.7034037882459345
H 14.296683472374234 1.3504194423706748 1.460724638305654
O -14.10600907385461 -5.312329119138326 7.61194886269372
H -13.63561638277974 -4.940448718583269 6.850763575942621
H -15.040357365034861 -5.250615908098117 7.362656474820275
O 5.300861381950796 16.938147646851164 10.839250945189468
H 6.025093858916608 16.362117023095685 10.551773299617093
H 5.139862188637373 17.511097876925593 10.074548886927502
O -7.7244512395817475 14.387660465925443 -6.808983588946871
H -7.542516625546922 13.96993354614986 -7.664186122625769
H -8.303718574661547 13.755144204248747 -6.358057344951154
O 5.360833273932577 19.565152937155773 -5.729344520808056
H 5.765259255612465 18.879316801793554 -5.177044079314768
H 4.409848078448532 19.394372903300894 -5.655701582879833
O -11.056774358535977 -0.16393764916732767 -13.247791893302493
H -11.10450218680706 -0.15439482082381062 -12.280011781016787
H -11.977496015468574 -0.052793516290699394 -13.52864871889588
O 14.466400263147154 -7.762109750059012 8.577832698556934
H 15.356725801183392 -8.124691502264914 8.456085968876913
H 14.003011127146507 -8.444976344305386 9.085696526171118