194

C -5.0710522388059704 1.0783507462686561 0.47044029850746183
C -3.8153522388059704 0.1782507462686569 0.19534029850746193
C -4.11845223880597 -1.3219492537313435 0.5608402985074619
C -2.96945223880597 -2.3874492537313436 0.7034402985074619
C -2.52015223880597 0.7359507462686565 0.7384402985074618
C -2.20305223880597 0.7852507462686571 2.097440298507462
C -1.5755522388059702 1.205650746268656 -0.18965970149253808
C -0.9533522388059701 1.2695507462686564 2.508640298507462
H -2.91125223880597 0.4298507462686567 2.840840298507462
C -0.32655223880597006 1.6562507462686575 0.21554029850746192
H -1.7850522388059702 1.178550746268657 -1.2573597014925382
C 0.004447761194029898 1.6956507462686563 1.569740298507462
H -0.7158522388059702 1.2676507462686573 3.5705402985074617
H 0.3943477611940298 1.9193507462686572 -0.5551597014925382
C -1.76045223880597 -2.1592492537313435 -0.1734597014925381
C -0.5287522388059701 -1.936549253731343 0.464840298507462
C -1.8068522388059702 -2.121249253731343 -1.5681597014925381
C 0.6114477611940299 -1.614449253731343 -0.2582597014925381
H -0.4544522388059702 -1.954049253731343 1.5506402985074619
C -0.6479522388059701 -1.8270492537313432 -2.2998597014925384
H -2.74345223880597 -2.290549253731343 -2.092259701492538
C 0.5698477611940298 -1.5506492537313434 -1.6506597014925382
H 1.5072477611940298 -1.351949253731343 0.2991402985074618
H -0.7173522388059701 -1.7640492537313435 -3.3840597014925375
C 1.7791477611940298 -1.082849253731343 -2.4255597014925376
H 1.4739477611940297 -0.9102492537313429 -3.464259701492538
H 2.1252477611940295 -0.1337492537313434 -2.0010597014925384
C 1.3965477611940298 2.0964507462686566 1.997440298507462
H 1.51704776119403 1.8448507462686567 3.057640298507462
H 2.1256477611940294 1.5207507462686571 1.4165402985074618
C 3.94864776119403 -1.4275492537313434 -3.522959701492538
H 4.81734776119403 -2.087049253731343 -3.615159701492538
H 3.4305477611940303 -1.3641492537313429 -4.484459701492538
H 4.26984776119403 -0.441449253731343 -3.176459701492538
C 2.60904776119403 -3.4296492537313434 -2.8992597014925376
H 1.9825477611940296 -3.869549253731343 -2.119359701492538
H 2.06294776119403 -3.373349253731343 -3.845759701492538
H 3.5215477611940305 -4.019849253731343 -3.0234597014925377
C 3.7281477611940304 -2.060049253731343 -1.156659701492538
H 3.9048477611940298 -1.032549253731343 -0.8295597014925382
H 3.12924776119403 -2.623249253731343 -0.4404597014925382
H 4.68244776119403 -2.5769492537313434 -1.3005597014925383
C 3.1110477611940297 3.755250746268656 2.588740298507462
H 3.40124776119403 4.809350746268656 2.534540298507462
H 2.9823477611940303 3.461750746268656 3.634840298507462
H 3.86514776119403 3.1392507462686563 2.091540298507462
C 1.99744776119403 3.9574507462686572 0.40494029850746194
H 2.67914776119403 3.230350746268657 -0.04295970149253803
H 1.03214776119403 3.981150746268657 -0.10175970149253821
H 2.4399477611940297 4.958250746268657 0.368240298507462
C 0.7418477611940297 4.4992507462686575 2.475440298507462
H -0.18475223880597014 4.424250746268656 1.901240298507462
H 0.57844776119403 4.189650746268656 3.511940298507462
H 1.1210477611940297 5.524350746268658 2.4432402985074617
N 3.00114776119403 -2.025349253731343 -2.490159701492538
N 1.7831477611940298 3.586450746268657 1.862540298507462
C -3.55075223880597 -3.8435492537313434 0.6444402985074619
H -2.62515223880597 -2.2736492537313433 1.7424402985074618
H -4.67195223880597 -1.3478492537313436 1.5102402985074619
H -4.83415223880597 -1.6757492537313432 -0.1945597014925382
H -3.7169522388059697 0.17335074626865676 -0.900559701492538
H -3.9132522388059705 -4.043149253731343 -0.34225970149253815
H -4.35435223880597 -3.9354492537313432 1.3449402985074619
H -2.78115223880597 -4.545049253731343 0.8904402985074619
H -5.24235223880597 1.138950746268657 1.5249402985074618
H -5.92805223880597 0.6501507462686567 -0.006059701492538094
H -4.89895223880597 2.059650746268657 0.08004029850746197
C -0.006249332192812873 3.082397641873724 -3.059073863263145
O -0.1388141384794086 3.6229643526302935 -1.9718803653263615
O -0.20876719142806777 3.6223679796023656 -4.152714579021289
O 0.35094116011151555 1.9117143196409743 -3.2338991922446314
O 3.480224894895307 -8.218799454698374 2.540122376522783
H 3.9988987378971173 -8.497007812579962 1.7703529882703255
H 3.614657649589982 -8.931369750680457 3.182876880240344
O 7.643115724085737 -1.0990913612451576 -2.172350115546315
H 7.353324806575632 -1.4915362715820668 -3.009592955694446
H 8.328083712877783 -1.706089902484023 -1.8540207741967167
O 5.6540751305832675 5.672458977233385 -0.25740056844399783
H 6.065817220986703 5.728569399703669 0.6179778802171613
H 4.7098901411876195 5.568807198385217 -0.06574212526564749
O 4.010494024385887 5.6044437071277615 7.597511427915869
H 4.096188512523126 5.263976766726952 8.500675905791857
H 4.2756876109072905 4.8577596539282775 7.039750519761217
O -5.272714422269853 6.394599024530602 -5.078650485444359
H -5.222139273770124 5.723575839024151 -4.381414947217134
H -5.007100461620008 5.919572466307295 -5.880374214162938
O 10.172601985641094 1.3486796555191733 1.3223099151978932
H 9.640813119060182 2.0365009530602816 0.8944433227541073
H 10.187327324113433 1.6105920222260444 2.2551266286378273
O 0.6349061291690792 -5.593745806949957 1.7261943317650439
H 1.587133336691148 -5.562055278355139 1.9029042990903344
H 0.5789386425804639 -5.805739478274095 0.7823255548349741
O -2.2238575805773504 1.4881198859361988 7.031634813448505
H -2.506874389752059 1.2914991430986364 7.93728879047868
H -2.1603429057250656 2.454814758535577 7.010926031048758
O 9.931803883822484 6.138701744020057 2.040798208519926
H 10.100477019709013 6.728504773750835 1.290698804273661
H 10.543965163767378 5.400760206635131 1.900574105605335
O 6.690157568397051 -5.541388552721078 2.397214237631371
H 5.9853808154124835 -5.954586013160666 2.918294791901828
H 6.678955443594027 -6.029171668345439 1.560014089033864
O -11.323006769567606 -0.6225601136921632 0.512426987784848
H -11.627749541335234 -1.1827902236278316 1.2419757687973678
H -10.412968502664297 -0.9163914537642208 0.35604463371930084
O -1.2983291443979716 -1.8942086731348258 8.130828970779799
H -1.312851447106937 -1.8845700308213147 7.161982462710341
H -1.9234327526640573 -2.595836793120492 8.36731449777479
O 7.840665404150363 7.185502580389798 -5.009395522816659
H 7.456845715744507 7.376062015523941 -4.140294317332862
H 7.292833357040234 7.6961667076209554 -5.6242647297366055
O -5.848354245808373 8.541970196434974 -1.5900050090265911
H -5.944754034391616 8.442250346489335 -2.549030759039555
H -5.228158165995795 7.839672374721988 -1.3428278731456489
O 7.508059953267654 -3.773801258528068 -2.802129776184817
H 7.0334004367009655 -3.8327386759835695 -3.6448587249318942
H 7.729082256163979 -4.693821410735495 -2.593146510216874
O 0.7800873728397533 -7.466744965202383 4.21456618550537
H 1.2375141425812166 -6.981206104072793 4.917403379709598
H 1.4529254215304928 -7.569330848450075 3.524836498532039
O -6.530740705889459 -4.432309428621723 -3.8491441184632915
H -6.840870278989003 -3.5144124505004726 -3.8332651277846628
H -6.184156520785344 -4.546770540310752 -4.746774332330132
O -2.865948312254677 -7.087376098345583 -5.717223550704375
H -3.1413690963565006 -7.093868731004428 -4.788208699205275
H -2.5640456900681556 -6.178624005513677 -5.865501616481249
O 0.7819337573661282 10.01038030952364 -2.4246547124151734
H 1.7458514858109442 9.946795663924433 -2.500726800159695
H 0.5411537843321158 9.257163835587374 -1.864608381941741
O -8.601602745088922 1.4344315904831273 -1.8021453080187197
H -8.911882808576003 1.4581833555833386 -2.7198214452027916
H -7.757384266312591 1.9093853454727394 -1.8281459813531364
C -14.037734575497032 0.846877803983161 6.574557473550271
O -13.920753462263644 -0.052449749710494764 5.793312551893778
O -14.15471568873042 1.7462053576768168 7.355802395206766
O -4.403766261206829 12.752450318192485 4.410442730837795
H -4.622533136471691 12.293044898184576 3.585788214537665
H -4.361640468413349 13.686011699351582 4.154219177100362
O -3.8479122044288134 16.43792797639404 0.7061494128023931
H -3.972340826900621 16.426180501307048 1.6670588110491007
H -3.3656961723260217 15.617735658318683 0.5225351321671043
O -19.78076233110904 4.54810446273989 10.340002847170505
H -19.90069961938099 4.559732753140626 11.301484613323318
H -19.948130127108886 3.6258114109380033 10.094390364262736
O -4.272834247818645 10.963627579671114 1.6934548320679033
H -4.9776224085545175 10.70877323587566 2.307694417926008
H -4.566769400665926 11.81707734048809 1.3410522554852555
O 22.771748783908293 -5.706754263353435 -3.3860229252393275
H 22.469970683965716 -4.820399510939433 -3.1364781633865526
H 21.951366447349628 -6.196386610391986 -3.5478714065298895
O -15.137480843799496 -2.2642576377716024 -4.93079262087149
H -15.490519545659119 -2.031986597837582 -4.058794228730056
H -15.92589320872477 -2.3470775724448707 -5.488025736859451
O -7.8486953342033825 -17.7338368122596 4.97619449147419
H -8.518938010963506 -17.965864574752022 5.636425684755899
H -7.6638424474002935 -16.798469314677725 5.149049919528926
O 12.378854674195129 -2.8716167090515317 -2.0533044703837637
H 11.892538297549939 -2.175358004628823 -1.5867344807548691
H 12.440534437990285 -2.544468607855899 -2.963321871823023
O -8.38456470131702 16.335758043269202 -5.794110406654793
H -8.740584452772296 15.440132720994143 -5.894472628498583
H -8.533876352847312 16.543616284700644 -4.859518021448106
O 12.072124024373458 -5.2327403770173095 14.616126521877211
H 12.087236226178725 -5.277796510784851 13.648289281910431
H 11.766805656988348 -6.111703996277724 14.886617917034114
O 10.061418888311925 -13.132829078495524 -10.572137366631225
H 10.795600455186184 -13.749017729529509 -10.429812631960917
H 9.889624846857956 -13.189329047899077 -11.524112421492596
O 3.78885996817645 -4.884634739333907 10.58212368831607
H 3.8793060976931577 -5.069711616495633 11.528978167154033
H 3.57041081026635 -3.9412004236383673 10.547865818031173
O -7.154904024874168 -6.203324203675585 -10.179732578457546
H -7.993360436428687 -6.014990425097844 -10.62749210171724
H -7.42305779236313 -6.610742351581729 -9.342435764873374
O 7.2401425332260985 -18.520851971365428 -2.9622046693835022
H 7.996684773926921 -18.522742154105774 -2.356723354936402
H 6.93268258362505 -17.6020074585565 -2.9497513576855208
O -13.041232034723153 -5.301991324153212 -12.71558727828798
H -12.872923003162283 -5.080583222039302 -11.787353536651016
H -12.473822259009587 -4.690527545627949 -13.208659421362693
O -5.157460115012431 -2.078245427951668 10.171234893228633
H -4.5829083815119755 -2.672415604566846 10.677020879247138
H -4.6187061882462785 -1.2827199299573642 10.045356647550655
O 12.523203016247969 -14.774697742308865 4.5549274769816295
H 12.565493605595236 -15.456904977622049 5.241784194965083
H 11.58072263844994 -14.556477632911811 4.499495846837632
O 14.192076009257397 -4.482327619026323 -18.026816019839785
H 14.017607273295555 -4.811818507663867 -18.921222958194313
H 15.11722285940313 -4.195942717825318 -18.059203337257507
O -16.122219182902775 -4.908688272311769 11.680390955800883
H -16.51122392514755 -4.541861278945943 12.488524994404177
H -15.187882948211222 -5.032248954695208 11.905580881444422
O 19.066362857423844 9.960311471090458 -0.3382616411744639
H 18.54283352824305 10.170245687557314 -1.1261778950644015
H 19.809190227038826 9.44174474234957 -0.6821482374440162