194

C -5.0710522388059704 1.0783507462686561 0.47044029850746183
C -3.8153522388059704 0.1782507462686569 0.19534029850746193
C -4.11845223880597 -1.3219492537313435 0.5608402985074619
C -2.96945223880597 -2.3874492537313436 0.7034402985074619
C -2.52015223880597 0.7359507462686565 0.7384402985074618
C -2.20305223880597 0.7852507462686571 2.097440298507462
C -1.5755522388059702 1.205650746268656 -0.18965970149253808
C -0.9533522388059701 1.2695507462686564 2.508640298507462
H -2.91125223880597 0.4298507462686567 2.840840298507462
C -0.32655223880597006 1.6562507462686575 0.21554029850746192
H -1.7850522388059702 1.178550746268657 -1.2573597014925382
C 0.004447761194029898 1.6956507462686563 1.569740298507462
H -0.7158522388059702 1.2676507462686573 3.5705402985074617
H 0.3943477611940298 1.9193507462686572 -0.5551597014925382
C -1.76045223880597 -2.1592492537313435 -0.1734597014925381
C -0.5287522388059701 -1.936549253731343 0.464840298507462
C -1.8068522388059702 -2.121249253731343 -1.5681597014925381
C 0.6114477611940299 -1.614449253731343 -0.2582597014925381
H -0.4544522388059702 -1.954049253731343 1.5506402985074619
C -0.6479522388059701 -1.8270492537313432 -2.2998597014925384
H -2.74345223880597 -2.290549253731343 -2.092259701492538
C 0.5698477611940298 -1.5506492537313434 -1.6506597014925382
H 1.5072477611940298 -1.351949253731343 0.2991402985074618
H -0.7173522388059701 -1.7640492537313435 -3.3840597014925375
C 1.7791477611940298 -1.082849253731343 -2.4255597014925376
H 1.4739477611940297 -0.9102492537313429 -3.464259701492538
H 2.1252477611940295 -0.1337492537313434 -2.0010597014925384
C 1.3965477611940298 2.0964507462686566 1.997440298507462
H 1.51704776119403 1.8448507462686567 3.057640298507462
H 2.1256477611940294 1.5207507462686571 1.4165402985074618
C 3.94864776119403 -1.4275492537313434 -3.522959701492538
H 4.81734776119403 -2.087049253731343 -3.615159701492538
H 3.4305477611940303 -1.3641492537313429 -4.484459701492538
H 4.26984776119403 -0.441449253731343 -3.176459701492538
C 2.60904776119403 -3.4296492537313434 -2.8992597014925376
H 1.9825477611940296 -3.869549253731343 -2.119359701492538
H 2.06294776119403 -3.373349253731343 -3.845759701492538
H 3.5215477611940305 -4.019849253731343 -3.0234597014925377
C 3.7281477611940304 -2.060049253731343 -1.156659701492538
H 3.9048477611940298 -1.032549253731343 -0.8295597014925382
H 3.12924776119403 -2.623249253731343 -0.4404597014925382
H 4.68244776119403 -2.5769492537313434 -1.3005597014925383
C 3.1110477611940297 3.755250746268656 2.588740298507462
H 3.40124776119403 4.809350746268656 2.534540298507462
H 2.9823477611940303 3.461750746268656 3.634840298507462
H 3.86514776119403 3.1392507462686563 2.091540298507462
C 1.99744776119403 3.9574507462686572 0.40494029850746194
H 2.67914776119403 3.230350746268657 -0.04295970149253803
H 1.03214776119403 3.981150746268657 -0.10175970149253821
H 2.4399477611940297 4.958250746268657 0.368240298507462
C 0.7418477611940297 4.4992507462686575 2.475440298507462
H -0.18475223880597014 4.424250746268656 1.901240298507462
H 0.57844776119403 4.189650746268656 3.511940298507462
H 1.1210477611940297 5.524350746268658 2.4432402985074617
N 3.00114776119403 -2.025349253731343 -2.490159701492538
N 1.7831477611940298 3.586450746268657 1.862540298507462
C -3.55075223880597 -3.8435492537313434 0.6444402985074619
H -2.62515223880597 -2.2736492537313433 1.7424402985074618
H -4.67195223880597 -1.3478492537313436 1.5102402985074619
H -4.83415223880597 -1.6757492537313432 -0.1945597014925382
H -3.7169522388059697 0.17335074626865676 -0.900559701492538
H -3.9132522388059705 -4.043149253731343 -0.34225970149253815
H -4.35435223880597 -3.9354492537313432 1.3449402985074619
H -2.78115223880597 -4.545049253731343 0.8904402985074619
H -5.24235223880597 1.138950746268657 1.5249402985074618
H -5.92805223880597 0.6501507462686567 -0.006059701492538094
H -4.89895223880597 2.059650746268657 0.08004029850746197
C -2.5942192868535754 4.328925676149714 -1.2947841363601589
O -2.423114636187 5.117583763974265 -0.37798692997851324
O -1.7465632414437602 3.535458295008974 -1.7196608335863657
O -3.6415233268668845 4.202238544600478 -1.939573251398267
O 0.9272451110193433 -3.6466546917016203 3.9059498478038686
H 0.1345887961376479 -3.9580296713112064 3.443663199228224
H 1.421615899547618 -3.165981219018547 3.225132338915675
O -1.6117689121314016 -6.50126659391442 5.258190290589554
H -0.6962909828654029 -6.544142211821786 5.572879342378622
H -1.807731435319947 -5.552528577284103 5.236817185856047
O -1.90532786084101 1.53123240840099 6.926090133507983
H -2.313326426360762 0.9789806010011315 7.609846280579009
H -2.6460076710866796 2.0398249245858975 6.563200321753585
O 4.809137896139394 -5.615006665357358 -0.5925743221061195
H 4.594058371031215 -6.44680731855229 -0.14444953131261107
H 3.9569568964298742 -5.158865136149293 -0.6610169503856711
O -1.9363842456610212 -5.241439636741249 -9.815544376355192
H -1.8342356374992717 -4.958037687663097 -10.736530996241346
H -2.5985347397575875 -4.6325231071010595 -9.45535091806004
O 8.15504521643518 -2.0725667562546715 4.362709713248954
H 8.236547066757575 -2.5212462992923905 5.217701802658844
H 7.407413313668776 -1.4685125723135182 4.485701685056361
O 5.084840633132543 2.5140639596575545 7.720776491111909
H 5.179003040593184 2.7265550431254657 6.780059563780499
H 5.014156998278942 1.547773313987336 7.736529463977806
O 5.458632135625783 5.075066379308557 0.27181109280138305
H 5.711029841413792 4.667414518371537 -0.5702594002617186
H 5.640959873004887 6.017523690879333 0.13955090850921326
O 9.190293816740352 0.9529279735647275 -5.418448054793268
H 9.415605343682907 1.2473410617466814 -6.313726227337412
H 8.316315018245742 1.339412315760858 -5.257971086604247
O -8.70709275928612 2.9739721850255396 -4.183981748748361
H -9.639406849673115 2.746554944832784 -4.049671687215407
H -8.737404829039978 3.84296245432643 -4.611648715660236
O -7.9924263054187294 1.543735731538447 -0.5601962991665954
H -8.599738528452104 0.8202085324529584 -0.3442157147665843
H -7.764681391354491 1.9233470753483546 0.3017720448395571
O -2.509249238893674 -3.936777523060237 7.2978710919247085
H -1.7866479183632182 -4.574639144631405 7.397606944025359
H -2.063308349832256 -3.1166423909681713 7.038107674809365
O -6.252085419571221 0.4259208423240821 -7.57161833157901
H -6.286436689172088 -0.24285476398000627 -6.87124233571007
H -5.9964117551857266 1.2374766156965342 -7.107969597788512
O -0.44040574031187285 2.903907024358415 -8.05294096967644
H -1.161764555553372 3.542291323461141 -7.947706454271546
H -0.32168797213898204 2.5362868065002395 -7.164277134898657
O 0.5858579862042252 5.854979126776696 8.528423144305227
H 0.4956828703384697 5.921017358285615 7.565887556725332
H 1.4703442749775344 6.2089537713237535 8.705476526904375
O 3.7925041227765055 -7.602992671946854 1.9587001792915544
H 3.009413038857478 -7.36927284388638 1.4380172112986447
H 4.031426596212816 -8.485859283280735 1.638661833809484
O 0.6798163899295142 8.645801782425238 0.1816022163233022
H 0.726358706865327 9.019554898831192 1.0744122619719194
H 1.3571975179466833 7.952897583131241 0.18232492437697623
O 10.128842560691139 -4.275471732625157 3.0193908868455743
H 10.061357817803184 -3.7681319815132435 3.8422028600928337
H 9.502685980407593 -5.004747268572746 3.1420574019830396
O 4.838133637027456 2.388726480735799 -5.811322872387964
H 5.115247055055439 2.2054257817852725 -4.901061171439771
H 3.8834166920055564 2.5382330852202584 -5.739731850579518
O -6.713211758903353 -2.809164102041363 -3.866159560153765
H -6.657262747899809 -2.813971295601826 -4.8335343354905
H -5.8173385823212955 -3.0410350511238393 -3.5787416436065076
C -16.67004302478682 10.578833513730993 -0.4449123964537405
O -17.59125702158546 10.430133368704448 -1.1946265394918463
O -15.748829027988183 10.727533658757539 0.3048017465843653
O -8.44108657675472 13.449799425667749 -11.429239299402935
H -9.357050367395061 13.683841422376995 -11.64184700131452
H -8.2303461096783 12.738848492599836 -12.053017441538639
O -2.597728511467496 16.82934405888874 9.491687061752144
H -3.1853990873197526 16.360547069207193 8.880262468165167
H -1.8331995897101683 17.06680880266841 8.945731049276565
O 14.22113121222872 -3.816040010629539 -0.796963298084072
H 13.380937661284486 -4.150681377636876 -1.1448962073340923
H 13.969716419490375 -3.0220650896113543 -0.301628692906422
O -0.3732330879664614 12.06714828731494 -18.236078363799702
H -0.733572445948687 11.857907501142016 -19.11091617584871
H -0.7153671204494595 11.361343046748447 -17.66709223874409
O 12.914652784138877 -8.094440665730032 8.377415985299663
H 12.926614807822183 -7.67338057990372 9.250074378379875
H 11.972785515671696 -8.23490669857978 8.198203021188181
O 11.500038750166901 0.9206653217285483 -2.929371194187809
H 12.037753456748613 1.7267756216929797 -2.9253171200643258
H 11.801234666796061 0.4423565226447348 -3.7164313296443816
O -5.499878071233849 8.183227550524112 6.108588451888753
H -5.730959065005416 9.061539265677737 6.446430814894702
H -5.134395608415424 7.724472316688518 6.879904307489187
O 13.8828296092924 2.480587119359284 4.396250038301674
H 14.452424468261297 3.210028493157073 4.683381255218606
H 13.050991371990722 2.9145611158463085 4.154023570639863
O 9.55090544365568 8.606704237724417 -12.449527388111138
H 10.132122512779548 8.124257303429562 -13.056486226129465
H 10.118485605894735 9.30262269362515 -12.085505127158012
O 8.069583393291671 -6.47367814444759 -7.798761437398719
H 8.69781939295022 -6.783846131120561 -8.468151238393817
H 7.488756971043973 -5.869419387227547 -8.285047326400061
O 1.3415765239747302 13.99898084710222 -11.042776786483376
H 1.0454260700880642 13.205015828682784 -11.512757440435161
H 0.9784150048525175 14.72956653262542 -11.565577141721828
O 8.710578766495583 -13.529281417981611 11.622270289507902
H 7.815451462978398 -13.428591340524491 11.265092496665554
H 8.939995316600939 -12.640536519174146 11.932854409645207
O 10.300770690666951 -2.671703862867021 -12.471073188145539
H 10.963481572357908 -3.355335103621285 -12.290989955019345
H 10.624023383344152 -1.8984590555741376 -11.984696678668023
O -6.415275635747104 -3.158980340242186 7.480590431955492
H -7.22400214012897 -2.6274257814344937 7.431820061636529
H -6.564075681450534 -3.742387511039695 8.23983779860269
O 1.2011252681518243 -2.998240193114016 14.070129541618085
H 2.1018450610864066 -3.348178361290579 13.9979181161432
H 1.1265913041613587 -2.3874878187960347 13.321538752350135
O -1.2874722101013916 -9.910116885737256 12.739516609192297
H -1.3916757923433618 -10.349989384668913 11.882416174568933
H -0.8927461018299363 -10.590549014304829 13.305348176146524
O 6.088643479276816 16.099758625359982 2.2382785656357678
H 6.572995908970351 15.614129055730103 2.922774001596496
H 6.527316742644322 15.841949462342217 1.4136197587522297
O -1.2575460208334293 -11.523427375237963 -4.494255335026419
H -1.0814822141553315 -10.705223620990997 -4.005878933657364
H -2.0464206544874766 -11.887148139319075 -4.064900048051348
O -10.370978775711833 -19.024599525712386 -1.6140767030441046
H -9.610608682406031 -18.80918043595972 -1.053363501954407
H -11.136389785424331 -18.757781218261826 -1.0831191517086785
O -17.62533989205363 -4.211011078140424 11.236919990489948
H -17.474048794084656 -4.225863290276723 10.27991540723551
H -17.223579800324885 -3.3774316687473944 11.524489358173774