194

C -5.0710522388059704 1.0783507462686561 0.47044029850746183
C -3.8153522388059704 0.1782507462686569 0.19534029850746193
C -4.11845223880597 -1.3219492537313435 0.5608402985074619
C -2.96945223880597 -2.3874492537313436 0.7034402985074619
C -2.52015223880597 0.7359507462686565 0.7384402985074618
C -2.20305223880597 0.7852507462686571 2.097440298507462
C -1.5755522388059702 1.205650746268656 -0.18965970149253808
C -0.9533522388059701 1.2695507462686564 2.508640298507462
H -2.91125223880597 0.4298507462686567 2.840840298507462
C -0.32655223880597006 1.6562507462686575 0.21554029850746192
H -1.7850522388059702 1.178550746268657 -1.2573597014925382
C 0.004447761194029898 1.6956507462686563 1.569740298507462
H -0.7158522388059702 1.2676507462686573 3.5705402985074617
H 0.3943477611940298 1.9193507462686572 -0.5551597014925382
C -1.76045223880597 -2.1592492537313435 -0.1734597014925381
C -0.5287522388059701 -1.936549253731343 0.464840298507462
C -1.8068522388059702 -2.121249253731343 -1.5681597014925381
C 0.6114477611940299 -1.614449253731343 -0.2582597014925381
H -0.4544522388059702 -1.954049253731343 1.5506402985074619
C -0.6479522388059701 -1.8270492537313432 -2.2998597014925384
H -2.74345223880597 -2.290549253731343 -2.092259701492538
C 0.5698477611940298 -1.5506492537313434 -1.6506597014925382
H 1.5072477611940298 -1.351949253731343 0.2991402985074618
H -0.7173522388059701 -1.7640492537313435 -3.3840597014925375
C 1.7791477611940298 -1.082849253731343 -2.4255597014925376
H 1.4739477611940297 -0.9102492537313429 -3.464259701492538
H 2.1252477611940295 -0.1337492537313434 -2.0010597014925384
C 1.3965477611940298 2.0964507462686566 1.997440298507462
H 1.51704776119403 1.8448507462686567 3.057640298507462
H 2.1256477611940294 1.5207507462686571 1.4165402985074618
C 3.94864776119403 -1.4275492537313434 -3.522959701492538
H 4.81734776119403 -2.087049253731343 -3.615159701492538
H 3.4305477611940303 -1.3641492537313429 -4.484459701492538
H 4.26984776119403 -0.441449253731343 -3.176459701492538
C 2.60904776119403 -3.4296492537313434 -2.8992597014925376
H 1.9825477611940296 -3.869549253731343 -2.119359701492538
H 2.06294776119403 -3.373349253731343 -3.845759701492538
H 3.5215477611940305 -4.019849253731343 -3.0234597014925377
C 3.7281477611940304 -2.060049253731343 -1.156659701492538
H 3.9048477611940298 -1.032549253731343 -0.8295597014925382
H 3.12924776119403 -2.623249253731343 -0.4404597014925382
H 4.68244776119403 -2.5769492537313434 -1.3005597014925383
C 3.1110477611940297 3.755250746268656 2.588740298507462
H 3.40124776119403 4.809350746268656 2.534540298507462
H 2.9823477611940303 3.461750746268656 3.634840298507462
H 3.86514776119403 3.1392507462686563 2.091540298507462
C 1.99744776119403 3.9574507462686572 0.40494029850746194
H 2.67914776119403 3.230350746268657 -0.04295970149253803
H 1.03214776119403 3.981150746268657 -0.10175970149253821
H 2.4399477611940297 4.958250746268657 0.368240298507462
C 0.7418477611940297 4.4992507462686575 2.475440298507462
H -0.18475223880597014 4.424250746268656 1.901240298507462
H 0.57844776119403 4.189650746268656 3.511940298507462
H 1.1210477611940297 5.524350746268658 2.4432402985074617
N 3.00114776119403 -2.025349253731343 -2.490159701492538
N 1.7831477611940298 3.586450746268657 1.862540298507462
C -3.55075223880597 -3.8435492537313434 0.6444402985074619
H -2.62515223880597 -2.2736492537313433 1.7424402985074618
H -4.67195223880597 -1.3478492537313436 1.5102402985074619
H -4.83415223880597 -1.6757492537313432 -0.1945597014925382
H -3.7169522388059697 0.17335074626865676 -0.900559701492538
H -3.9132522388059705 -4.043149253731343 -0.34225970149253815
H -4.35435223880597 -3.9354492537313432 1.3449402985074619
H -2.78115223880597 -4.545049253731343 0.8904402985074619
H -5.24235223880597 1.138950746268657 1.5249402985074618
H -5.92805223880597 0.6501507462686567 -0.006059701492538094
H -4.89895223880597 2.059650746268657 0.08004029850746197
C -2.3748342850333173 3.9580514829048727 0.6171731969115926
O -2.489902698956761 3.0791260544613737 -0.2230796519098518
O -2.465526935669712 3.7920111644796943 1.8389902535439715
O -2.1498844607083902 5.149579067442034 0.3757027510528417
O 3.6852156587226292 6.815447325970588 5.639030186619299
H 3.680906511143253 6.684138993263405 4.678974505989888
H 2.8568178540056754 6.4088087751783 5.934604391261178
O -2.792668637975076 7.277937381212486 -4.130005751036936
H -2.680802225872776 6.605268948670811 -3.441550638044604
H -3.171235237804484 6.788755695806518 -4.8758948530199175
O 6.400213262665176 -5.520852458692696 -5.807011549704034
H 7.312416958388192 -5.706517335767344 -5.537975626767845
H 6.274215089217386 -4.5875853490976 -5.578759700344967
O -5.7384498264221 7.989212297193864 -4.239319750067649
H -6.286648483189339 8.075439612971138 -5.03368140550706
H -5.694222891919999 7.03310481034009 -4.088109974766226
O -3.400478575389624 -13.610163084319682 0.9300095482569111
H -4.014904132225332 -12.860870097989116 0.9270748177828869
H -3.1305624837289736 -13.695149095925673 0.0032492633968281837
O 2.107537192088196 1.4120562157629915 -10.53404428717359
H 2.545786561542864 1.589652870313144 -9.688252187798584
H 2.8147361369092376 1.0588516744798702 -11.094471043102484
O -1.3892354942020244 -6.436444531375636 5.967511878453618
H -2.025324007132783 -5.723455718040444 6.12877474670423
H -1.6506120859331048 -7.129130567900928 6.592676078002764
O 4.226060398478967 4.5919755278237355 -3.7045484309049286
H 3.6979431676051653 5.065523500672139 -4.364708915003574
H 3.690525090028942 3.813074420408376 -3.4912951951253453
O -1.3583048206622297 -5.925211990408708 -6.580342622756084
H -1.7415257741091188 -5.845821124054032 -5.6938855464806934
H -2.0789215555896594 -6.291084056638991 -7.114955657384788
O 8.68472081248816 7.963231155156695 5.86672698035181
H 7.794766941882164 8.278134071164974 5.648127761270664
H 9.025825601482165 8.632172072774374 6.479203523545242
O -2.350413193680908 5.858426519570217 8.621234715345489
H -2.9208452988799745 5.3560447686155666 8.020246240775549
H -2.597540564080108 5.537445570235246 9.501496742962038
O 2.074862439788295 12.63228702730386 -1.678146338199019
H 2.484226355730681 13.09876764901264 -2.422313235336017
H 1.6792952844084192 13.339941605219718 -1.1473793759270583
O 3.2482041884975503 -5.782528312616815 1.0374459087536412
H 3.754599201253966 -6.422281684550102 0.5147155087811317
H 2.7954303851391575 -6.326914770167198 1.6989602412726876
O 3.954825773264975 -2.369632300728028 9.466337236709347
H 4.737321616110785 -2.891198159404328 9.700082114497674
H 4.302677174829442 -1.4763777971879366 9.324711890690423
O -0.24797194103926334 10.03968785288517 2.762081802384748
H -0.08756037548581874 9.495899885001833 1.9762509474789312
H -0.0761859168757355 10.94418427870232 2.459860489625224
O 6.841024623222225 4.094964786409589 1.6581707750340864
H 7.7440816086953 3.8348768826087367 1.8944115847701757
H 6.755439123941216 3.827455339253052 0.73076807809234
O -8.334713272746644 3.7480986554216296 -4.211668230084759
H -8.175695594197235 3.997604700039095 -5.134396504555692
H -8.27338202392936 2.7810546171802475 -4.216791736726798
O -6.445381532273128 5.423312588040627 -0.4609435530991659
H -6.398876072047959 5.277695008241503 0.495926406468325
H -6.112286708001635 4.596093492888429 -0.8400455854850672
O -2.182048445903635 3.1387460825970686 10.46134770279092
H -1.6187710556447326 2.519839639306248 9.9728389997198
H -2.942259733913218 3.2752005202193324 9.876180266636103
O 6.289337324391858 -4.10918333708007 3.3542818116927444
H 6.720002888695988 -4.1926257158523175 2.490261037609485
H 6.802908975893731 -4.696038050405697 3.92944061456473
C 13.262332942794854 8.591785108594944 11.148621150715659
O 13.392655911014009 7.521055389625156 11.667631796241768
O 13.132009974575698 9.662514827564731 10.62961050518955
O 13.259299075666869 11.419970897044731 -5.572520454514473
H 13.25453663963009 11.410533721258528 -4.603574833844162
H 13.179141508694283 12.358995676134338 -5.797840611208782
O -5.898691113766517 17.59737710985608 5.649403521422676
H -5.941060620744769 17.564813572735616 6.616932227884983
H -4.976739098345364 17.377407676481692 5.447959052792177
O 6.084136335965244 -14.394851342804367 15.252928396888095
H 5.733457993362283 -14.478981829333826 16.15232492688227
H 7.026814058548281 -14.213714127894804 15.385253621318146
O 12.125918149161606 -5.095557793973319 9.09286192340391
H 11.264399653998177 -5.250417542047398 8.677203773215835
H 12.257498429349235 -5.8733759089989235 9.655576375061019
O 13.706330784743937 -5.225640439133121 2.0392719052123307
H 13.81934893638964 -5.283686772436716 1.0786341600197953
H 14.157852740905021 -4.4023891200039404 2.2787445194222506
O 13.672850427398364 2.6242300252701765 11.144189043971478
H 13.191365773320243 3.2927649060791104 10.63409003600434
H 13.615800415292721 2.941210685588635 12.058098504149466
O 12.260772161500148 0.21603171439216662 -1.9589813132010434
H 11.427071444429492 0.38044529480776523 -1.4932789985935262
H 11.995733676524647 0.11801827133549314 -2.8858631345580417
O -21.14280179151119 -10.58848729529197 1.6746663405854134
H -20.799978798381087 -9.79311033417075 1.2401375820447376
H -20.601016260866384 -10.670550022582853 2.473850982500852
O -6.126243069834664 11.805041858572146 -14.5789493465741
H -6.598493971728591 11.853057752670146 -15.423722047644835
H -5.555043675600081 12.58776332098236 -14.585298252657864
O -7.861657765959611 -7.237774179528744 8.806707306387842
H -8.20788748077675 -7.860640053083754 8.150102063461627
H -6.91261137626217 -7.431310709112217 8.835281879333712
O 8.744086069234182 8.336967488956777 -2.692935830132898
H 9.588363299685023 8.784949362267641 -2.53332519067816
H 8.58472885407123 8.468329959014753 -3.6396729233830647
O 6.000635690424378 -2.215684361731586 7.607798122319032
H 6.254504416685984 -2.2475869287088304 8.542410476691996
H 6.684841188237274 -2.7368663618352036 7.161486455621199
O -7.371849523899636 -17.993655965828573 -0.5340016201849185
H -7.888446705950677 -18.474704847488997 0.12984074201425777
H -7.352292994281224 -18.593275983022597 -1.2949453246923692
O -7.310525311228746 -2.1097714397304377 -6.05029770308531
H -8.2409140800844 -1.929948232857697 -6.252801307885978
H -6.83168808974269 -1.7529259413346254 -6.813408540312877
O -7.634322687483174 -1.488172667955972 -17.976674443021235
H -8.11756680720106 -2.153451137197618 -18.48936054193711
H -8.07650827429346 -1.4905222630301314 -17.114451542304586
O -6.7771329220580885 -13.10043394837469 9.83935014136297
H -6.627171543144252 -13.152078023802844 8.88341508540601
H -6.06614637625332 -13.639542388547543 10.217268341135084
O 3.690484169602609 18.348953913838507 7.214905059092655
H 2.989109903858809 18.12405903342716 6.58525135345986
H 3.2879707172409915 19.02320607748211 7.782645215141045
O -10.123174183738156 3.789233046353127 18.599793964345427
H -10.674646299431844 4.151040856166061 17.88990596524226
H -10.287850617397567 2.835119174847229 18.560930913805766
O 4.897794364859288 11.230657985911016 -12.552036609505118
H 5.73067141835194 11.67157600913997 -12.32648291865243
H 4.294146133649962 11.492681016267268 -11.840759807675637
O 19.59130402970957 9.907407878880582 4.925657352437863
H 19.01996034739969 10.156962999432725 5.667449773126288
H 20.486308828455485 10.095144491142806 5.246099732497172