194

C -5.0710522388059704 1.0783507462686561 0.47044029850746183
C -3.8153522388059704 0.1782507462686569 0.19534029850746193
C -4.11845223880597 -1.3219492537313435 0.5608402985074619
C -2.96945223880597 -2.3874492537313436 0.7034402985074619
C -2.52015223880597 0.7359507462686565 0.7384402985074618
C -2.20305223880597 0.7852507462686571 2.097440298507462
C -1.5755522388059702 1.205650746268656 -0.18965970149253808
C -0.9533522388059701 1.2695507462686564 2.508640298507462
H -2.91125223880597 0.4298507462686567 2.840840298507462
C -0.32655223880597006 1.6562507462686575 0.21554029850746192
H -1.7850522388059702 1.178550746268657 -1.2573597014925382
C 0.004447761194029898 1.6956507462686563 1.569740298507462
H -0.7158522388059702 1.2676507462686573 3.5705402985074617
H 0.3943477611940298 1.9193507462686572 -0.5551597014925382
C -1.76045223880597 -2.1592492537313435 -0.1734597014925381
C -0.5287522388059701 -1.936549253731343 0.464840298507462
C -1.8068522388059702 -2.121249253731343 -1.5681597014925381
C 0.6114477611940299 -1.614449253731343 -0.2582597014925381
H -0.4544522388059702 -1.954049253731343 1.5506402985074619
C -0.6479522388059701 -1.8270492537313432 -2.2998597014925384
H -2.74345223880597 -2.290549253731343 -2.092259701492538
C 0.5698477611940298 -1.5506492537313434 -1.6506597014925382
H 1.5072477611940298 -1.351949253731343 0.2991402985074618
H -0.7173522388059701 -1.7640492537313435 -3.3840597014925375
C 1.7791477611940298 -1.082849253731343 -2.4255597014925376
H 1.4739477611940297 -0.9102492537313429 -3.464259701492538
H 2.1252477611940295 -0.1337492537313434 -2.0010597014925384
C 1.3965477611940298 2.0964507462686566 1.997440298507462
H 1.51704776119403 1.8448507462686567 3.057640298507462
H 2.1256477611940294 1.5207507462686571 1.4165402985074618
C 3.94864776119403 -1.4275492537313434 -3.522959701492538
H 4.81734776119403 -2.087049253731343 -3.615159701492538
H 3.4305477611940303 -1.3641492537313429 -4.484459701492538
H 4.26984776119403 -0.441449253731343 -3.176459701492538
C 2.60904776119403 -3.4296492537313434 -2.8992597014925376
H 1.9825477611940296 -3.869549253731343 -2.119359701492538
H 2.06294776119403 -3.373349253731343 -3.845759701492538
H 3.5215477611940305 -4.019849253731343 -3.0234597014925377
C 3.7281477611940304 -2.060049253731343 -1.156659701492538
H 3.9048477611940298 -1.032549253731343 -0.8295597014925382
H 3.12924776119403 -2.623249253731343 -0.4404597014925382
H 4.68244776119403 -2.5769492537313434 -1.3005597014925383
C 3.1110477611940297 3.755250746268656 2.588740298507462
H 3.40124776119403 4.809350746268656 2.534540298507462
H 2.9823477611940303 3.461750746268656 3.634840298507462
H 3.86514776119403 3.1392507462686563 2.091540298507462
C 1.99744776119403 3.9574507462686572 0.40494029850746194
H 2.67914776119403 3.230350746268657 -0.04295970149253803
H 1.03214776119403 3.981150746268657 -0.10175970149253821
H 2.4399477611940297 4.958250746268657 0.368240298507462
C 0.7418477611940297 4.4992507462686575 2.475440298507462
H -0.18475223880597014 4.424250746268656 1.901240298507462
H 0.57844776119403 4.189650746268656 3.511940298507462
H 1.1210477611940297 5.524350746268658 2.4432402985074617
N 3.00114776119403 -2.025349253731343 -2.490159701492538
N 1.7831477611940298 3.586450746268657 1.862540298507462
C -3.55075223880597 -3.8435492537313434 0.6444402985074619
H -2.62515223880597 -2.2736492537313433 1.7424402985074618
H -4.67195223880597 -1.3478492537313436 1.5102402985074619
H -4.83415223880597 -1.6757492537313432 -0.1945597014925382
H -3.7169522388059697 0.17335074626865676 -0.900559701492538
H -3.9132522388059705 -4.043149253731343 -0.34225970149253815
H -4.35435223880597 -3.9354492537313432 1.3449402985074619
H -2.78115223880597 -4.545049253731343 0.8904402985074619
H -5.24235223880597 1.138950746268657 1.5249402985074618
H -5.92805223880597 0.6501507462686567 -0.006059701492538094
H -4.89895223880597 2.059650746268657 0.08004029850746197
C 1.6161828366234965 2.013860539862774 -3.4663274430250377
O 0.8293635766307571 2.3025367731085575 -2.5778698002172877
O 1.302736095410776 1.614855842528388 -4.5937926779783025
O 2.847654178060361 2.076058272326317 -3.375453014850316
O -1.5310704300475846 1.4325599602015822 7.971620921450391
H -1.2304794487614101 1.822172115192912 8.806375249113584
H -2.4969002201262045 1.42805106478689 8.049815747102905
O -6.811385180100635 5.712470280607461 3.6726112469821435
H -7.220706551363825 5.485028840358111 2.824263580524267
H -5.906965200043089 5.3735346686831456 3.594450547508571
O 0.4045829188206087 -10.154574971442763 -4.684631393659261
H 0.909082366995893 -10.861438630759189 -4.254757655419034
H -0.25524760030659577 -9.901470372767989 -4.0216655631234755
O 1.3795497292796413 -1.308917944406627 -8.398667821499982
H 1.41989925665897 -0.811366068464898 -9.229198617609994
H 0.6034744514435926 -0.9460493322721406 -7.94590355860008
O -6.492019074317082 -5.035487735739071 5.234879471891945
H -5.970245951607383 -4.2735847514922 5.528518719802509
H -7.125687718341029 -5.176474586416818 5.954288049695144
O 2.1677294035741896 4.7921346122357615 8.25978853085253
H 2.38789010020517 3.851757416893964 8.18112878867105
H 2.547151138265895 5.050772298363944 9.11308076617276
O -5.2675224342871285 -3.829311359704281 -3.6953845173900377
H -5.747499046081301 -3.530823590234828 -2.9083045592487204
H -4.33686467325246 -3.6732604318800512 -3.4751887316648453
O 9.475234119420257 -1.7995398855429587 -4.207714272518836
H 9.603426417231912 -2.4921532043430403 -4.873162153500139
H 8.81994308527212 -2.176043661035197 -3.601248682476701
O -3.1634432113699797 5.002900131787831 7.691094989430239
H -3.155597858946568 5.935516087729766 7.954027083454272
H -4.08943120587502 4.8319689250553 7.4624233888815645
O 5.404624311005116 2.414066115057159 -8.852179336129781
H 5.376849759613546 2.1042644192525874 -9.769904153529644
H 4.500937544979766 2.2756983180813846 -8.53098387232197
O -9.014018887990918 2.25076445992185 -2.1280697786664464
H -9.11687164147978 2.176541012588249 -3.08873597868895
H -9.000616209761683 3.2062304033419617 -1.9672371219060798
O -9.209013840809 3.002827759441801 2.157447800115942
H -9.458274067656129 3.9008316772588394 2.4228261334390844
H -8.933027145151442 2.5821385438080764 2.9855866000580185
O 3.9953395607728863 -9.04469312075588 6.060158933184192
H 3.775862235638187 -8.134411054731173 6.30952537223626
H 4.066515930441852 -9.508883318863603 6.9077574989459904
O -2.59142159307527 -0.8391368916479758 5.268162382399551
H -2.8004109915664173 -1.0191882136460253 6.197071586609017
H -2.4940512436659636 -1.7195391867629595 4.875259394230489
O 10.281205127521275 1.3532438896731351 -3.715454694139558
H 11.153354767194102 1.5367366634673096 -3.3351222541822536
H 10.255815461002104 1.8980404811622686 -4.516400374592276
O -3.1938282396299997 3.7169122393546705 -6.523790518606123
H -3.8654908343940666 4.396394193964699 -6.362108766221574
H -2.35384146739771 4.185183203934462 -6.4050198551142925
O -4.714112174220698 -1.8616386843908925 7.953712296843195
H -5.174865853641304 -1.4833635004352834 8.717637220512875
H -5.414390766788399 -1.9845987106307434 7.2953410725035415
O -7.576823354073121 -4.827959547022161 -0.44096026669172295
H -6.787528931204929 -5.277283920586442 -0.10318922256532748
H -8.163650182015871 -4.775702168169072 0.3283676118243585
O 0.5987538459058346 -6.560750155145927 -8.307606316928887
H 1.3557225407365667 -7.044034419414692 -8.671477271879208
H 0.10883318840823905 -7.2330119798939725 -7.810611616108494
O 8.560692495872702 1.9169629538301867 6.991940730207116
H 8.345254555155252 2.463768906491439 6.221514159576504
H 7.849064363235683 2.1083524108541116 7.62116042226994
C -1.4402697987279982 13.086667866333872 13.844303776757302
O -1.7757238154760202 12.693198934212926 14.923873626004315
O -1.104815781979978 13.480136798454819 12.764733927510289
O -5.462649723178213 3.876638508177972 1.0215755945680678
H -5.386749178818039 3.7483276494142945 1.9790424544588727
H -6.39626365159166 4.099426902513455 0.8885631578494383
O 13.99984976471114 -6.351409035972387 1.1742833161536588
H 14.124822064216453 -5.62901860873159 0.5406419728945462
H 13.539308637505886 -5.933754887192799 1.9175388754734062
O -0.21150398236044055 7.595224172790079 13.435747615242285
H 0.7084420066683195 7.867079683629675 13.57271956637112
H -0.283108317114143 6.759124571076003 13.920280606439006
O -1.7549063740859019 -12.455493622030717 -11.280866119218084
H -2.216759874383849 -12.790534289800016 -10.497663430188458
H -1.7172072451785887 -11.497748338266113 -11.138512013529873
O 9.674569035978086 13.830758742021857 -13.2951857729803
H 10.100857101808355 14.683474520373297 -13.121629893848567
H 9.63385688701863 13.407876338908642 -12.424281106346633
O 3.221955025984988 0.3057740632631467 -19.75538473891975
H 2.4233054560019243 0.21722791087837834 -19.21382606235393
H 3.0956280173660424 -0.34059922613996685 -20.466162483323437
O -2.3456041766275266 9.469488488312455 -11.25944671374293
H -2.3794336299892818 9.502246456545663 -10.291588335413497
H -3.068546063946058 10.051136140061573 -11.538736851547792
O 2.9653921866107993 3.8922124484810023 -11.048323685162451
H 2.4694176258170253 3.416453133631939 -10.3652207161455
H 2.4599251110014873 4.708575258958008 -11.178771917979361
O 10.773613008518259 -1.0983596020467643 -17.484372653236818
H 10.556941125353191 -2.025494796003822 -17.30425884457154
H 9.916393095515474 -0.6916131618687986 -17.681078775292168
O 7.526725556620066 13.007181350289702 10.495825862343684
H 7.250328324828263 13.119400901238613 9.573882968481675
H 7.399470300589802 13.884631148760192 10.886786084459395
O -7.198086517623381 15.853314301324579 -4.853309623154486
H -7.033496713442574 16.180428755510608 -3.9561620950843803
H -7.627320749658441 16.598892267531745 -5.299217029075997
O -3.6079988434416177 7.630263014679089 4.944651199952202
H -4.015811096223245 7.761503817630583 5.813807328056827
H -4.222118211073796 8.060162570239752 4.3306432857297565
O -6.711264800480137 -7.579227986634097 -10.148536810189432
H -6.907361295477076 -8.513252054028742 -10.316204824662918
H -6.843810645107547 -7.479964645871131 -9.193790596500904
O -7.484982089039576 -10.116569788631697 4.42326089988811
H -7.515495117626361 -10.125835296427555 3.4547824735141672
H -8.342851828008037 -9.746942767282814 4.680937674842577
O -11.044347400109112 -5.786445840902697 16.823430283961535
H -10.877910957732077 -5.2727976348760315 17.628061744938833
H -10.578772170370907 -6.621978511444956 16.97862953077265
O 13.689718536113157 -10.886711647932156 14.220013620953015
H 14.32479467513456 -10.567380193577279 14.878552212688742
H 13.60616039906699 -10.148306112722366 13.598131600305274
O -14.413616623012594 9.161434204727401 19.186956957976523
H -13.881112646471607 8.352955303404661 19.14490059122884
H -13.768694625304791 9.856315074136187 19.38740180949998
O 5.8304415247568295 3.6440031361905767 -12.43483135871984
H 6.3205863842047085 3.693920890900429 -11.600425227737121
H 5.035029159963782 4.172633885775786 -12.271030733485045
O 12.302994283557735 12.177848371513269 -6.345857876007658
H 12.184967010557806 12.764906622772155 -5.584018306703818
H 11.662165921407578 11.466842515657621 -6.194955167274763
O 4.345420496549412 16.13679370678259 -0.9714736518409237
H 4.360086488278879 16.086532542057476 -1.9390614157709285
H 4.804974399522337 15.332064975770527 -0.6883061677505671