194

C -5.0710522388059704 1.0783507462686561 0.47044029850746183
C -3.8153522388059704 0.1782507462686569 0.19534029850746193
C -4.11845223880597 -1.3219492537313435 0.5608402985074619
C -2.96945223880597 -2.3874492537313436 0.7034402985074619
C -2.52015223880597 0.7359507462686565 0.7384402985074618
C -2.20305223880597 0.7852507462686571 2.097440298507462
C -1.5755522388059702 1.205650746268656 -0.18965970149253808
C -0.9533522388059701 1.2695507462686564 2.508640298507462
H -2.91125223880597 0.4298507462686567 2.840840298507462
C -0.32655223880597006 1.6562507462686575 0.21554029850746192
H -1.7850522388059702 1.178550746268657 -1.2573597014925382
C 0.004447761194029898 1.6956507462686563 1.569740298507462
H -0.7158522388059702 1.2676507462686573 3.5705402985074617
H 0.3943477611940298 1.9193507462686572 -0.5551597014925382
C -1.76045223880597 -2.1592492537313435 -0.1734597014925381
C -0.5287522388059701 -1.936549253731343 0.464840298507462
C -1.8068522388059702 -2.121249253731343 -1.5681597014925381
C 0.6114477611940299 -1.614449253731343 -0.2582597014925381
H -0.4544522388059702 -1.954049253731343 1.5506402985074619
C -0.6479522388059701 -1.8270492537313432 -2.2998597014925384
H -2.74345223880597 -2.290549253731343 -2.092259701492538
C 0.5698477611940298 -1.5506492537313434 -1.6506597014925382
H 1.5072477611940298 -1.351949253731343 0.2991402985074618
H -0.7173522388059701 -1.7640492537313435 -3.3840597014925375
C 1.7791477611940298 -1.082849253731343 -2.4255597014925376
H 1.4739477611940297 -0.9102492537313429 -3.464259701492538
H 2.1252477611940295 -0.1337492537313434 -2.0010597014925384
C 1.3965477611940298 2.0964507462686566 1.997440298507462
H 1.51704776119403 1.8448507462686567 3.057640298507462
H 2.1256477611940294 1.5207507462686571 1.4165402985074618
C 3.94864776119403 -1.4275492537313434 -3.522959701492538
H 4.81734776119403 -2.087049253731343 -3.615159701492538
H 3.4305477611940303 -1.3641492537313429 -4.484459701492538
H 4.26984776119403 -0.441449253731343 -3.176459701492538
C 2.60904776119403 -3.4296492537313434 -2.8992597014925376
H 1.9825477611940296 -3.869549253731343 -2.119359701492538
H 2.06294776119403 -3.373349253731343 -3.845759701492538
H 3.5215477611940305 -4.019849253731343 -3.0234597014925377
C 3.7281477611940304 -2.060049253731343 -1.156659701492538
H 3.9048477611940298 -1.032549253731343 -0.8295597014925382
H 3.12924776119403 -2.623249253731343 -0.4404597014925382
H 4.68244776119403 -2.5769492537313434 -1.3005597014925383
C 3.1110477611940297 3.755250746268656 2.588740298507462
H 3.40124776119403 4.809350746268656 2.534540298507462
H 2.9823477611940303 3.461750746268656 3.634840298507462
H 3.86514776119403 3.1392507462686563 2.091540298507462
C 1.99744776119403 3.9574507462686572 0.40494029850746194
H 2.67914776119403 3.230350746268657 -0.04295970149253803
H 1.03214776119403 3.981150746268657 -0.10175970149253821
H 2.4399477611940297 4.958250746268657 0.368240298507462
C 0.7418477611940297 4.4992507462686575 2.475440298507462
H -0.18475223880597014 4.424250746268656 1.901240298507462
H 0.57844776119403 4.189650746268656 3.511940298507462
H 1.1210477611940297 5.524350746268658 2.4432402985074617
N 3.00114776119403 -2.025349253731343 -2.490159701492538
N 1.7831477611940298 3.586450746268657 1.862540298507462
C -3.55075223880597 -3.8435492537313434 0.6444402985074619
H -2.62515223880597 -2.2736492537313433 1.7424402985074618
H -4.67195223880597 -1.3478492537313436 1.5102402985074619
H -4.83415223880597 -1.6757492537313432 -0.1945597014925382
H -3.7169522388059697 0.17335074626865676 -0.900559701492538
H -3.9132522388059705 -4.043149253731343 -0.34225970149253815
H -4.35435223880597 -3.9354492537313432 1.3449402985074619
H -2.78115223880597 -4.545049253731343 0.8904402985074619
H -5.24235223880597 1.138950746268657 1.5249402985074618
H -5.92805223880597 0.6501507462686567 -0.006059701492538094
H -4.89895223880597 2.059650746268657 0.08004029850746197
C -1.6472705832230057 2.5458237696367694 -3.5587115838856365
O -0.45523364674141537 2.795257431396355 -3.465941496870541
O -2.5005936468439396 3.3087169690689264 -4.026114172082096
O -2.184742863432793 1.491893508260389 -3.1995417959562946
O -9.335899576954821 2.460555983442697 5.029440806359119
H -8.772329716454353 1.7037061141397944 5.249746604221233
H -9.041454579970775 3.1561521367903502 5.636408745791683
O -2.6144357270939427 2.533342706008857 -10.804940477058828
H -2.104333572894502 2.808077434976032 -11.581654052246247
H -3.289110103134643 3.222672520159617 -10.712199774360545
O 6.957819496121906 3.834716057179319 -6.132899703254147
H 7.010451908947558 3.6735644161662764 -5.178841353561135
H 7.128567114405297 2.966001142183866 -6.52677987743786
O -7.542908130847071 -7.713310940965284 2.146473714622232
H -7.1623218206530925 -7.7350497075495745 1.255604002812291
H -8.094514395451641 -8.509063096085088 2.1848270817649316
O 2.4303391758185393 -3.2571954995703587 7.1712811815396496
H 2.2939315762792933 -3.9331293275544503 7.852070270666903
H 3.3715370006961844 -3.038475987614442 7.243878521954806
O 3.747217335640702 2.0481577956246637 -6.748005880777433
H 4.480644448932947 1.4546925078636914 -6.969028455666499
H 3.644283737059215 2.5978332731024776 -7.539348719275768
O 7.3282360907193755 2.886704197051066 0.7268742399596151
H 6.998622569281542 3.5474487287017418 1.354360452779533
H 7.666985021616631 3.4141611562237495 -0.012044065630571588
O 0.2562406342542016 7.5315265146547645 -0.7951774936371236
H 0.8267256638035105 8.0290811426679 -0.19023652122507384
H -0.12425858739447382 6.835426263128091 -0.23873636786616603
O -7.664639662431343 -1.809257782562605 3.142145223351731
H -7.630245792603595 -1.9790561648190879 2.188754994745755
H -7.873788075702259 -2.673844684620346 3.526473695256241
O -9.005233219537516 -5.354647223774254 2.217597631216212
H -8.889792628096432 -6.1409782421250405 2.7719660613483312
H -8.67195239402067 -4.629667519826403 2.767406929524718
O -5.537720479792991 1.3582897342425113 9.331025972645085
H -6.470861800841178 1.1169639899201638 9.430908488531061
H -5.534715867476571 2.3232150216153444 9.419750864266796
O -5.467849706274775 -0.8125656094473819 -4.834819011081184
H -4.676548349374308 -0.7801447288966713 -4.276465712557932
H -6.201520069051078 -0.7506879252538493 -4.204850047335721
O 5.176398721534465 -7.177466667976238 -2.177677659594626
H 5.155733896864182 -7.9752183595773225 -2.7273435221592885
H 6.121483011233703 -7.002127975571466 -2.0550645582984424
O -9.288485712403322 -0.166387444019217 6.765179958601491
H -8.33936847462091 -0.06311839158568455 6.9309488599484235
H -9.697534580941745 0.5230641061763892 7.309512143375008
O -4.52814690322565 5.091184261582585 0.8629483882207839
H -4.462123501673076 4.818423087205419 1.7904232445375563
H -4.95702111441889 5.959128758794986 0.9041940550488068
O 0.9998724484250587 0.46257645737844655 7.243144086509496
H 1.01210360543573 -0.3555130859408613 7.762323491734499
H 1.3148974145945016 0.1894142159451806 6.368442077340032
O 7.53164202415252 -3.3678231208916625 1.6732983385273523
H 7.2791907348358 -3.0961610655338867 0.7780690767730708
H 6.791395988084729 -3.9192965529754153 1.9680436592564339
O -1.326947555017883 2.792275402912926 8.427781029260546
H -1.5416014013336312 2.939446223438048 7.494383025862308
H -0.3614956919234711 2.709805304076121 8.435738864730984
O -0.49105283790539467 -8.604084850992104 -4.048210609305181
H -0.38513011414354015 -8.346362723573685 -3.120133544331697
H 0.41775539162195185 -8.715996805281607 -4.3652362561075675
O -3.1287522457095553 -4.036529738131687 3.8861602996776115
H -2.859030561868888 -4.335032936678193 4.767700662124881
H -3.2360592425343664 -4.858008286703889 3.3835469821380277
C 2.8538158898701855 14.98682079292234 -6.726881698644263
O 2.485605477476682 14.901919119585395 -7.86267703908619
O 3.2220263022636884 15.071722466259281 -5.591086358202336
O 4.734027175564815 -0.21122164277848277 13.939725138440865
H 4.519049131944509 -0.13109409226042168 14.881176875551784
H 3.9494827114950724 -0.6303916759799498 13.555344582918867
O 12.755227406614122 -12.406696516361311 10.587871371201699
H 12.767409486099966 -12.206875397123854 9.639773024960078
H 13.665179485381906 -12.237067089974234 10.874533221383714
O 0.19766850985195905 -19.40939857329219 -1.1767323399739027
H 0.5791869752143635 -20.18963244971883 -1.6064370241045065
H -0.010291021418119772 -19.71391413489762 -0.2806380087821143
O -9.96825210501445 8.939351036410446 10.738444230986799
H -9.693202086346636 8.276030633346688 10.087813085859105
H -10.52357585386912 9.549504078063672 10.230221106739867
O 3.6316288800044925 1.620308942983105 4.2800095900029715
H 4.383877498368183 1.3082914939781123 3.7549053293210224
H 3.8321240397991194 1.318253813485141 5.178634280261866
O 5.900265347824971 -6.467247833161682 -13.6713607871723
H 5.005049234583953 -6.601260874793843 -14.017187293047929
H 5.889892857287042 -6.91839791149646 -12.813853957719285
O 16.868549587650318 -6.398171185202238 5.409150128298774
H 16.93891942092089 -6.3902917169650815 4.442737505530542
H 17.188904407811734 -5.522939148540306 5.674298417940532
O -13.64075524843438 -6.980469453168366 -3.12057055931619
H -13.886217260412238 -6.166607044757734 -2.655442901837274
H -12.723905987066914 -7.1376974078850175 -2.849224384687639
O 11.766182017969694 -6.011500311981159 -19.650188197632314
H 11.448016792196679 -6.601569391458786 -18.950504892519753
H 11.918950565475924 -6.602170039635638 -20.40300490043946
O -16.605625587082635 7.621889402498066 -1.3108873385453959
H -16.753749602568995 7.388188868876543 -2.2395480373591297
H -15.643175984768725 7.5753771923462265 -1.2084699493354218
O 8.987862351100821 -6.22178598589448 -1.66499879480514
H 9.303220309175103 -5.437001292661044 -1.19210377427128
H 9.556761822334792 -6.267521467537607 -2.4480847426094527
O 9.728436605137487 12.622293054047327 -3.5035064474819295
H 9.82327692944412 12.70198622812233 -4.464558822637033
H 10.145641334501393 11.7724821980533 -3.2968094055798
O -2.6055705564449694 -7.699266069189326 -15.958865317471504
H -1.7867982988988436 -7.817721667907151 -15.454338194013085
H -2.6292105870464644 -8.466561490675444 -16.550186574843163
O -12.028091938702326 -2.5688920742168704 6.310506792257465
H -12.085476456325612 -2.5487470894075672 7.277599628351383
H -12.501067629584758 -1.7705843663346816 6.031292280331289
O 9.354763057270159 -14.796859359588147 -11.964746245458496
H 8.959466602822589 -14.40260050166089 -12.756748785193736
H 8.779195108904448 -15.550741658886094 -11.766390605459712
O -6.894010911862935 5.226553788484981 7.930169430293772
H -7.022843275392179 4.973197355089075 8.85654953406564
H -6.899441652317292 6.1953453710185356 7.949542632668431
O 8.952805133567562 -0.7241388902192369 -10.9355061424403
H 8.340833881107415 -0.15434014891263015 -11.425187607749908
H 9.696915374881108 -0.846029788131041 -11.544114803304199
O 3.1530340611977303 8.987662646338041 -3.077142805892821
H 3.615786951119402 9.240659663730671 -3.890050936593687
H 2.7412292083377494 8.138481969616915 -3.296849168441614
O -8.460652210728105 4.877935813290572 -3.4649547164664845
H -8.341559651149005 4.925357136442786 -4.425441851863619
H -8.667903799172128 3.9457461528873443 -3.300543158403359
O -1.8835544826131239 12.380650613943486 15.393106607714593
H -1.8419964727874678 12.388787430936748 14.42502908967766
H -0.9573306082346118 12.30103943559694 15.666480599004055