194

C -5.0710522388059704 1.0783507462686561 0.47044029850746183
C -3.8153522388059704 0.1782507462686569 0.19534029850746193
C -4.11845223880597 -1.3219492537313435 0.5608402985074619
C -2.96945223880597 -2.3874492537313436 0.7034402985074619
C -2.52015223880597 0.7359507462686565 0.7384402985074618
C -2.20305223880597 0.7852507462686571 2.097440298507462
C -1.5755522388059702 1.205650746268656 -0.18965970149253808
C -0.9533522388059701 1.2695507462686564 2.508640298507462
H -2.91125223880597 0.4298507462686567 2.840840298507462
C -0.32655223880597006 1.6562507462686575 0.21554029850746192
H -1.7850522388059702 1.178550746268657 -1.2573597014925382
C 0.004447761194029898 1.6956507462686563 1.569740298507462
H -0.7158522388059702 1.2676507462686573 3.5705402985074617
H 0.3943477611940298 1.9193507462686572 -0.5551597014925382
C -1.76045223880597 -2.1592492537313435 -0.1734597014925381
C -0.5287522388059701 -1.936549253731343 0.464840298507462
C -1.8068522388059702 -2.121249253731343 -1.5681597014925381
C 0.6114477611940299 -1.614449253731343 -0.2582597014925381
H -0.4544522388059702 -1.954049253731343 1.5506402985074619
C -0.6479522388059701 -1.8270492537313432 -2.2998597014925384
H -2.74345223880597 -2.290549253731343 -2.092259701492538
C 0.5698477611940298 -1.5506492537313434 -1.6506597014925382
H 1.5072477611940298 -1.351949253731343 0.2991402985074618
H -0.7173522388059701 -1.7640492537313435 -3.3840597014925375
C 1.7791477611940298 -1.082849253731343 -2.4255597014925376
H 1.4739477611940297 -0.9102492537313429 -3.464259701492538
H 2.1252477611940295 -0.1337492537313434 -2.0010597014925384
C 1.3965477611940298 2.0964507462686566 1.997440298507462
H 1.51704776119403 1.8448507462686567 3.057640298507462
H 2.1256477611940294 1.5207507462686571 1.4165402985074618
C 3.94864776119403 -1.4275492537313434 -3.522959701492538
H 4.81734776119403 -2.087049253731343 -3.615159701492538
H 3.4305477611940303 -1.3641492537313429 -4.484459701492538
H 4.26984776119403 -0.441449253731343 -3.176459701492538
C 2.60904776119403 -3.4296492537313434 -2.8992597014925376
H 1.9825477611940296 -3.869549253731343 -2.119359701492538
H 2.06294776119403 -3.373349253731343 -3.845759701492538
H 3.5215477611940305 -4.019849253731343 -3.0234597014925377
C 3.7281477611940304 -2.060049253731343 -1.156659701492538
H 3.9048477611940298 -1.032549253731343 -0.8295597014925382
H 3.12924776119403 -2.623249253731343 -0.4404597014925382
H 4.68244776119403 -2.5769492537313434 -1.3005597014925383
C 3.1110477611940297 3.755250746268656 2.588740298507462
H 3.40124776119403 4.809350746268656 2.534540298507462
H 2.9823477611940303 3.461750746268656 3.634840298507462
H 3.86514776119403 3.1392507462686563 2.091540298507462
C 1.99744776119403 3.9574507462686572 0.40494029850746194
H 2.67914776119403 3.230350746268657 -0.04295970149253803
H 1.03214776119403 3.981150746268657 -0.10175970149253821
H 2.4399477611940297 4.958250746268657 0.368240298507462
C 0.7418477611940297 4.4992507462686575 2.475440298507462
H -0.18475223880597014 4.424250746268656 1.901240298507462
H 0.57844776119403 4.189650746268656 3.511940298507462
H 1.1210477611940297 5.524350746268658 2.4432402985074617
N 3.00114776119403 -2.025349253731343 -2.490159701492538
N 1.7831477611940298 3.586450746268657 1.862540298507462
C -3.55075223880597 -3.8435492537313434 0.6444402985074619
H -2.62515223880597 -2.2736492537313433 1.7424402985074618
H -4.67195223880597 -1.3478492537313436 1.5102402985074619
H -4.83415223880597 -1.6757492537313432 -0.1945597014925382
H -3.7169522388059697 0.17335074626865676 -0.900559701492538
H -3.9132522388059705 -4.043149253731343 -0.34225970149253815
H -4.35435223880597 -3.9354492537313432 1.3449402985074619
H -2.78115223880597 -4.545049253731343 0.8904402985074619
H -5.24235223880597 1.138950746268657 1.5249402985074618
H -5.92805223880597 0.6501507462686567 -0.006059701492538094
H -4.89895223880597 2.059650746268657 0.08004029850746197
C 1.250470388847707 -1.3036903331949592 3.6698279931667543
O 1.9045102035450712 -0.9963858582885523 2.685159836327541
O 0.6533992270968516 -0.5089857789373975 4.405070921284921
O 1.0844499510109822 -2.456953081023239 4.08343485129663
O -10.728037702492529 -5.375199133005141 -1.0706568783153663
H -11.259353065351133 -5.209905180093323 -1.863972232522769
H -11.091742957963415 -4.76287031902772 -0.4135923038511349
O 2.861429338033168 2.2992341501076856 9.55610813126345
H 3.3251679469635085 2.6212558968295108 8.768570288283458
H 2.294355296718952 1.589099953142055 9.219807078235752
O -6.784653403188202 4.327431553590743 3.6412835416793707
H -6.530229523823638 4.479704747835363 4.5638065608087715
H -6.0225681937792555 3.8647812866501914 3.26162210249973
O -3.675278016658267 -1.558293878124355 -4.781917659926098
H -3.197802394115143 -0.8732250111732913 -4.290323280064565
H -3.021691252189105 -2.26496096367973 -4.89330848451862
O 7.180482983391691 -7.103537074250793 3.204641942028984
H 7.323844201785901 -7.68286019788962 3.9680550912331887
H 6.793748759537427 -7.688727869128607 2.5360985118839325
O -8.145065662387166 1.634767724994624 -3.327004356879499
H -8.326049474775882 1.6907747215088933 -2.3767015457215512
H -7.178312739104495 1.5944044506385233 -3.379172696968687
O -7.594288019540511 -3.664483902888719 7.167490403554374
H -7.81937245860926 -3.0465455489254736 6.455832801269187
H -8.420535603527203 -4.143343730622403 7.331716283485102
O -4.433669950216812 2.764638652293653 -6.5895535036980695
H -4.037952893566294 2.3432374717633175 -5.811866926069593
H -3.7067217927429827 3.2779997613530263 -6.97291846343061
O 1.575527490404924 -9.843101774929629 7.0139236802235025
H 2.0115555528750884 -10.609640488717883 6.6123451873950625
H 2.2787149938094142 -9.179200231072862 7.074948424552025
O -3.841036814963779 1.509514446245291 -8.256865454839028
H -3.7004375129868015 2.2441684312158356 -8.872887139157436
H -3.29501014647117 0.7944852608754593 -8.616796122696346
O 1.9621548597317724 -10.402293277563347 2.0600358469298135
H 1.8546796854198124 -10.117768242729749 1.140002179959112
H 1.0663324754144785 -10.649147792607295 2.334857695512664
O 7.029793868418265 -3.9261692590510573 -3.323314299532302
H 7.408914927324665 -4.797972243099737 -3.1357132958102794
H 6.163995981582344 -4.125735761716734 -3.7100043232777353
O -0.012997749506042655 4.544601004689426 7.070438759369516
H -0.49628698767830426 5.3776005492458525 6.963151164859893
H 0.5204043618287918 4.6844228478822245 7.867241108819938
O 4.308859596842115 -7.991720184628179 0.6998349438397813
H 4.841266425482309 -8.572640450456545 1.2637870432836928
H 4.5315185590082425 -7.09980346381637 1.0062162324384971
O 0.9303069715407937 -1.1929319979987867 -7.827478116875468
H 0.526794779031875 -1.5973702957844966 -7.044806454758561
H 1.7869043323543583 -1.63904041675501 -7.906155842198821
O 5.136548386384728 3.2327207293102727 -6.243297647124787
H 5.159595615968523 2.4236033241906574 -5.710601479651232
H 5.386304795744725 2.935602867666927 -7.131162871455645
O 1.598684818610887 -7.2198528146419125 -3.5635175041375606
H 1.652044975714766 -6.7688855942971236 -2.707510134596652
H 0.7405687369630019 -6.944857712500321 -3.9198550246366173
O 7.612611602836034 -1.1404469609035672 3.250789155017049
H 7.175919242832145 -1.9531284232675454 3.547126767115448
H 7.006046206598224 -0.43584854385594707 3.5238851730782015
O 7.68672476002555 -4.151007955524107 3.824332652036193
H 7.87666176924454 -3.8726017309484377 2.91582769137474
H 7.27135599120216 -5.020317909799093 3.72074243249516
O 4.82683008324235 -2.9731053051926515 -9.529139573350072
H 5.426933217900047 -3.686978842386447 -9.266027130526806
H 3.943970112837488 -3.3572156340407884 -9.419688797980953
C -2.7527814781113378 -22.638050839399746 0.9699733638196157
O -2.2884122248984706 -22.584762007178686 2.0719442138565123
O -3.217150731324205 -22.69133967162081 -0.1319974862172808
O -12.09728101503254 8.81461887008575 17.730703812927803
H -12.243459867173806 8.854087437827904 16.773603331135508
H -11.479439665026348 9.540882509020106 17.903258549995073
O -5.838896875766775 -0.950480433665637 20.23143054019391
H -6.386228780907594 -0.43882988476610874 20.845929407829757
H -5.0258587328199384 -0.4292302126985308 20.152505705348954
O -2.2966611690801946 -15.539276315384674 -9.28213286652778
H -3.0080830756189747 -15.8446146884809 -9.864897575232485
H -1.4964752421486285 -15.633421099772708 -9.82046472162573
O 1.9045860784797108 14.62907084384405 -14.229437665116324
H 1.9970035932667622 14.774355409799464 -15.183019730150967
H 1.979463367663178 15.517130432545533 -13.84903590016263
O -1.7601185237810553 8.454591130907195 -3.159057307922621
H -1.590740246426467 8.519761381628587 -4.1109140169294465
H -1.5551079082645538 7.531455869730822 -2.9475061760457733
O -1.887580184951509 1.9551947077958745 -14.441981380104897
H -2.2746813526257013 1.9324331196739315 -15.33001401069425
H -1.5733470521556572 2.8668877204379357 -14.346927010121476
O -3.736486618158443 14.950555661464223 -1.0346680542219104
H -4.704464580991227 14.992630171777535 -1.049356687650148
H -3.471694456363518 15.791960287288589 -0.6335629420713271
O -6.27561620590195 8.643389529423427 -0.7360594374904377
H -7.2362704334171655 8.535541709767697 -0.6691291763774654
H -6.137721110526975 9.594575048918406 -0.6127995718626114
O 6.2008125231249 6.398058451922616 13.115920742192802
H 5.893693923447642 7.293470086291748 12.908837358821081
H 5.7680935265112465 6.191062580837194 13.957864281643792
O 8.34487280246416 16.104704185015457 2.2933583468683327
H 9.049905529926402 15.452720567469697 2.163691186187231
H 7.531071087304817 15.6055597927141 2.1273957356035718
O 5.040043349352364 -4.254110454413686 12.115267726919683
H 5.6010453294997165 -4.224523723262529 12.904804781471613
H 5.670612224711075 -4.319340296156907 11.382403547501012
O -1.8044801935013206 10.896581279976752 -15.322679023485616
H -1.4505487175966403 10.726087507540209 -16.208473435764386
H -2.573965993248292 11.463237467553602 -15.483160528241248
O 10.773343707303324 -12.799856696213274 4.2517822228672255
H 11.213321729221523 -12.467843857069559 5.0487478254955205
H 10.37528205755357 -12.009216557408823 3.857577912629781
O -16.378796591414165 6.811568903313402 -0.966945073830269
H -16.405902276933197 6.1162856183773515 -0.29254623604873853
H -16.742141953100578 6.3850820594170505 -1.7575467841903585
O -10.397941885608663 1.01353417480526 4.226393005465913
H -10.313887756724931 0.9688101821319366 5.190707282450836
H -9.485023926142452 0.9464882527184382 3.908513172957506
O -4.7558759226923675 -0.17196072419181874 9.172123629087661
H -5.387532699982671 0.5067024299998846 9.453891966105498
H -5.23465878756809 -0.669521625988843 8.492298606302882
O -6.576922492227547 4.782395439286816 -7.913919543658365
H -6.2220003756060684 5.004266753394454 -7.039979747099655
H -5.792743467673243 4.546728612049679 -8.432076226804535
O -9.12763558468404 12.358410686804998 15.43942784171264
H -8.98076940711298 11.405708091884604 15.340658168140184
H -10.058862821201503 12.47778378458818 15.19957821841984
O -16.683876743041857 -17.785841430739893 1.9201908516797097
H -16.563374965119962 -18.729592618285388 1.7363964708512025
H -15.900516776515378 -17.369565403082724 1.5302891000273142
O 1.3336069198999354 18.30475221094296 -9.998321053847905
H 1.3142539701229392 18.311359946558984 -10.967108521802029
H 2.2417232202778656 18.56336202995564 -9.780587981490651