194

C -5.0710522388059704 1.0783507462686561 0.47044029850746183
C -3.8153522388059704 0.1782507462686569 0.19534029850746193
C -4.11845223880597 -1.3219492537313435 0.5608402985074619
C -2.96945223880597 -2.3874492537313436 0.7034402985074619
C -2.52015223880597 0.7359507462686565 0.7384402985074618
C -2.20305223880597 0.7852507462686571 2.097440298507462
C -1.5755522388059702 1.205650746268656 -0.18965970149253808
C -0.9533522388059701 1.2695507462686564 2.508640298507462
H -2.91125223880597 0.4298507462686567 2.840840298507462
C -0.32655223880597006 1.6562507462686575 0.21554029850746192
H -1.7850522388059702 1.178550746268657 -1.2573597014925382
C 0.004447761194029898 1.6956507462686563 1.569740298507462
H -0.7158522388059702 1.2676507462686573 3.5705402985074617
H 0.3943477611940298 1.9193507462686572 -0.5551597014925382
C -1.76045223880597 -2.1592492537313435 -0.1734597014925381
C -0.5287522388059701 -1.936549253731343 0.464840298507462
C -1.8068522388059702 -2.121249253731343 -1.5681597014925381
C 0.6114477611940299 -1.614449253731343 -0.2582597014925381
H -0.4544522388059702 -1.954049253731343 1.5506402985074619
C -0.6479522388059701 -1.8270492537313432 -2.2998597014925384
H -2.74345223880597 -2.290549253731343 -2.092259701492538
C 0.5698477611940298 -1.5506492537313434 -1.6506597014925382
H 1.5072477611940298 -1.351949253731343 0.2991402985074618
H -0.7173522388059701 -1.7640492537313435 -3.3840597014925375
C 1.7791477611940298 -1.082849253731343 -2.4255597014925376
H 1.4739477611940297 -0.9102492537313429 -3.464259701492538
H 2.1252477611940295 -0.1337492537313434 -2.0010597014925384
C 1.3965477611940298 2.0964507462686566 1.997440298507462
H 1.51704776119403 1.8448507462686567 3.057640298507462
H 2.1256477611940294 1.5207507462686571 1.4165402985074618
C 3.94864776119403 -1.4275492537313434 -3.522959701492538
H 4.81734776119403 -2.087049253731343 -3.615159701492538
H 3.4305477611940303 -1.3641492537313429 -4.484459701492538
H 4.26984776119403 -0.441449253731343 -3.176459701492538
C 2.60904776119403 -3.4296492537313434 -2.8992597014925376
H 1.9825477611940296 -3.869549253731343 -2.119359701492538
H 2.06294776119403 -3.373349253731343 -3.845759701492538
H 3.5215477611940305 -4.019849253731343 -3.0234597014925377
C 3.7281477611940304 -2.060049253731343 -1.156659701492538
H 3.9048477611940298 -1.032549253731343 -0.8295597014925382
H 3.12924776119403 -2.623249253731343 -0.4404597014925382
H 4.68244776119403 -2.5769492537313434 -1.3005597014925383
C 3.1110477611940297 3.755250746268656 2.588740298507462
H 3.40124776119403 4.809350746268656 2.534540298507462
H 2.9823477611940303 3.461750746268656 3.634840298507462
H 3.86514776119403 3.1392507462686563 2.091540298507462
C 1.99744776119403 3.9574507462686572 0.40494029850746194
H 2.67914776119403 3.230350746268657 -0.04295970149253803
H 1.03214776119403 3.981150746268657 -0.10175970149253821
H 2.4399477611940297 4.958250746268657 0.368240298507462
C 0.7418477611940297 4.4992507462686575 2.475440298507462
H -0.18475223880597014 4.424250746268656 1.901240298507462
H 0.57844776119403 4.189650746268656 3.511940298507462
H 1.1210477611940297 5.524350746268658 2.4432402985074617
N 3.00114776119403 -2.025349253731343 -2.490159701492538
N 1.7831477611940298 3.586450746268657 1.862540298507462
C -3.55075223880597 -3.8435492537313434 0.6444402985074619
H -2.62515223880597 -2.2736492537313433 1.7424402985074618
H -4.67195223880597 -1.3478492537313436 1.5102402985074619
H -4.83415223880597 -1.6757492537313432 -0.1945597014925382
H -3.7169522388059697 0.17335074626865676 -0.900559701492538
H -3.9132522388059705 -4.043149253731343 -0.34225970149253815
H -4.35435223880597 -3.9354492537313432 1.3449402985074619
H -2.78115223880597 -4.545049253731343 0.8904402985074619
H -5.24235223880597 1.138950746268657 1.5249402985074618
H -5.92805223880597 0.6501507462686567 -0.006059701492538094
H -4.89895223880597 2.059650746268657 0.08004029850746197
C -1.075167479795445 -4.817833192651007 -1.578494661334577
O -0.11514586689249229 -4.46846966365991 -2.2478817884666262
O -1.2617844502319704 -5.9593848794738 -1.1418422632452816
O -2.008651677925317 -4.083884859945502 -1.234146754181595
O -1.3383791915494534 -10.682521464663331 -1.0345471376142008
H -2.1549533513279395 -10.37056127669564 -0.6163906601978848
H -1.5756722513014125 -11.551281162532769 -1.3921929616515545
O 3.803571162543884 2.218412375876789 -3.0654435935655995
H 3.158070992467835 1.9570577592272649 -2.3916553095417723
H 3.2722641332335662 2.3287618731762896 -3.868249780232838
O 2.4712018926608126 -3.0009116750773144 7.855014649301345
H 1.9125769844445402 -3.7104405684761144 7.503625522758368
H 1.962382756424371 -2.6503174042074926 8.60143858255433
O -8.022815588469596 4.132861025256826 5.115190572790695
H -8.338415774630471 4.263691713123816 6.021969052082895
H -8.003228464053773 5.0272529268034525 4.742844745225879
O -5.710148227570771 11.175566866816846 1.4686061104962853
H -5.921311294974181 10.408145490946865 0.9159380838088254
H -5.780391444356233 10.838211912159554 2.374265797886536
O -3.6552764908456763 -7.208266181085532 4.749167357344577
H -4.324546148951588 -6.693297624871799 4.273927557085865
H -2.8699269162653396 -6.640819552557572 4.735299632991476
O -9.227751459048367 2.9802729017106793 1.9094400378132361
H -9.026000480745658 3.567946744550606 2.6530147510032793
H -8.506192683068605 2.333582390212534 1.91974826000994
O 11.109771723528695 -4.46678119180882 -4.45583993416464
H 11.908535409080404 -4.03380524028688 -4.11897830537988
H 10.792970119639143 -4.990574449145923 -3.704681288044398
O 6.689083585917776 -0.7235625627842885 -8.224984872224399
H 6.729859958431225 -0.7076686149862126 -7.256970395696265
H 7.527020274748441 -0.3228725588713186 -8.501157953055468
O -1.5079475828570272 1.5472437928590894 6.357708356747666
H -0.9261677227107423 0.8572247187722004 6.005042468654641
H -2.397355283399404 1.252031988375196 6.111200999840646
O -3.6564390061554235 7.669635853294405 0.016466798026853788
H -3.653803415689209 7.651019862051096 -0.9523540602503225
H -4.553506119377434 7.390262663903432 0.2534966689820631
O 2.2368723488374034 11.015435553365801 3.417602446349739
H 2.563185961303427 11.576227113732003 2.697880549335749
H 1.3118820702735619 10.84767401503891 3.1826322458549132
O 3.3217057154913388 -2.952808371282895 -7.75003862434235
H 3.0130594342541466 -3.025255285610791 -6.834366043895159
H 4.25877389912048 -3.194594252230697 -7.701000360667165
O -1.261488383702794 -3.9769789968813587 6.194825523461112
H -0.8324084346285938 -3.110464692671979 6.131495318953169
H -1.4765061058414566 -4.199363433424638 5.2765257435147
O -2.377188939003402 3.795554889389941 5.769696755164212
H -2.3675348754602394 3.7265665521080957 4.803200627248434
H -2.6671977622922336 4.7049591795236 5.9365519732460035
O 5.897196728359869 -6.190256084228982 -1.6141391437333334
H 5.72159529426364 -5.413651178451778 -2.1664219640040066
H 6.784316135519687 -6.029226117211514 -1.2591032984123727
O 6.662399839810937 -0.6786541610068519 3.2272849870357603
H 5.842500008885236 -0.4162791348380561 2.7824356082670234
H 6.640590039917268 -1.6471771492357774 3.20608361442194
O 0.8002126617455898 -4.18051081908333 -8.92071412336593
H 1.486744332039982 -4.738052021678722 -9.31668057395395
H 1.2516884879214738 -3.3407845214867087 -8.747534252123708
O 6.789860963806692 3.77049523740501 -6.71931335084605
H 6.847283417121319 3.762125090286284 -7.686577513002667
H 7.713965610616019 3.7371992430279124 -6.429686137339014
O -5.4160323776222965 -5.716772717458569 -0.20212487422249978
H -5.516249076958957 -5.74860569494539 -1.1654060541582392
H -5.093395238679674 -6.600776199472376 0.02897048415231373
C 6.413466583578147 14.128420239427212 -2.062810684350352
O 7.433597154598955 14.338391439626307 -2.6527801500481223
O 5.393336012557339 13.918449039228117 -1.472841218652582
O -3.718156615136298 10.25233963378552 -7.2250892660326285
H -3.3505053715957347 10.215514482405773 -6.329296975236968
H -4.534030989034886 9.733039252415173 -7.164772898235825
O -10.257592093844789 -7.178522921702272 7.338169475343679
H -9.717681006806359 -6.701894111074729 6.68987297537414
H -10.514826334721711 -7.990778303216135 6.876613753006451
O 4.791056946115758 -11.049611804517797 13.716633350006653
H 4.834359063637009 -10.907597538109572 14.674194957243863
H 4.703225034759409 -10.156433254834463 13.351284779415407
O -3.7527786397846734 -0.33739827353168383 -5.262140220712308
H -3.80574996358947 -0.3353453720083678 -4.29458806121407
H -4.613727507425459 -0.682178363175235 -5.54295275852612
O 1.6743549949063898 13.27904658146317 8.801248891777108
H 1.96672691713249 12.705231515905227 8.077216926645354
H 1.8593596918816544 14.174238407300262 8.479741813547802
O 6.788474703020955 -16.754145197455212 0.836668826763205
H 6.76018736216672 -17.44562727953844 1.514916357835192
H 7.616895245054758 -16.924067667828183 0.36358563756836126
O -11.530135885428853 3.533663868328621 -1.4554372581893333
H -12.101200661515545 2.8941551560249 -1.9069690791064167
H -12.055554791383457 3.819130396060277 -0.692937566969527
O -5.9665650904090715 -12.844992748618909 14.617883355436604
H -6.669034186242177 -13.463237284987294 14.366331731410728
H -6.4442243890151705 -12.052821330115068 14.906445276799666
O -22.15079775059977 -1.792546417290074 -1.179435389156902
H -22.71341445045507 -2.5135347416902682 -1.4997565436605242
H -22.775020245032195 -1.168533120989665 -0.7795408683331484
O 3.0875999541464445 14.104956493973173 1.7684287685937572
H 2.924977728701618 14.995721221909628 2.113478863733091
H 3.728729051600426 14.24366193144324 1.0552133549114107
O -3.769238768786635 -0.4035089951774453 19.20743374524556
H -3.7164885759243615 0.10553417997316972 18.384597297410647
H -3.349257981367198 -1.2485432687040747 18.987217580843687
O -9.760588747132484 -1.0306201651624751 -9.927590553661831
H -9.369665994452935 -1.092788556520864 -10.812057539734997
H -10.411397279726517 -1.7482834789665749 -9.908366448415547
O -0.9528729223989694 6.71653695848294 13.697601345822175
H -1.368497417449018 6.074313511996212 13.10281341655906
H -0.9873251263344129 7.5494670268551625 13.203635262831211
O 11.3190652951217 -11.760794748601347 -1.0851478590589654
H 12.219074801988306 -12.094654600969161 -0.9529062490163258
H 11.33859489713025 -10.87415499297412 -0.6946987808340568
O 9.55921889637238 10.720360988620214 7.783944534417287
H 10.032820684851982 10.0573835182764 8.308472490455323
H 9.97819851814322 11.558111018249107 8.032123721090048
O 2.7013940345392813 -18.866605528461072 -6.2787130518051875
H 3.443480024386124 -19.4771090706602 -6.153968650987558
H 2.638077256657654 -18.76862361939597 -7.240665480688575
O -2.5854417082770147 15.355237835924989 -5.994010926910612
H -3.0452124742800173 14.688305066995415 -6.525780502344322
H -1.8205313437334056 15.600217848594891 -6.536098440054032
O 2.7527009447222666 -22.199723849851754 5.635695459825069
H 2.942737757553413 -22.683230194730353 6.453665496642509
H 2.0785729743228183 -22.739375005463067 5.196047812188364
O -14.423142283037343 -3.108888737973063 11.116467768501934
H -14.682934999714288 -3.958724702673622 11.502801735896838
H -14.101264716347485 -2.5963829127541844 11.87323362098111
O -4.330936956014534 13.028848624657323 -16.74349684948668
H -3.8846208734934016 13.348792807019976 -17.541873346858242
H -5.085149234840456 12.524196764062022 -17.083279548230905