194

C -5.0710522388059704 1.0783507462686561 0.47044029850746183
C -3.8153522388059704 0.1782507462686569 0.19534029850746193
C -4.11845223880597 -1.3219492537313435 0.5608402985074619
C -2.96945223880597 -2.3874492537313436 0.7034402985074619
C -2.52015223880597 0.7359507462686565 0.7384402985074618
C -2.20305223880597 0.7852507462686571 2.097440298507462
C -1.5755522388059702 1.205650746268656 -0.18965970149253808
C -0.9533522388059701 1.2695507462686564 2.508640298507462
H -2.91125223880597 0.4298507462686567 2.840840298507462
C -0.32655223880597006 1.6562507462686575 0.21554029850746192
H -1.7850522388059702 1.178550746268657 -1.2573597014925382
C 0.004447761194029898 1.6956507462686563 1.569740298507462
H -0.7158522388059702 1.2676507462686573 3.5705402985074617
H 0.3943477611940298 1.9193507462686572 -0.5551597014925382
C -1.76045223880597 -2.1592492537313435 -0.1734597014925381
C -0.5287522388059701 -1.936549253731343 0.464840298507462
C -1.8068522388059702 -2.121249253731343 -1.5681597014925381
C 0.6114477611940299 -1.614449253731343 -0.2582597014925381
H -0.4544522388059702 -1.954049253731343 1.5506402985074619
C -0.6479522388059701 -1.8270492537313432 -2.2998597014925384
H -2.74345223880597 -2.290549253731343 -2.092259701492538
C 0.5698477611940298 -1.5506492537313434 -1.6506597014925382
H 1.5072477611940298 -1.351949253731343 0.2991402985074618
H -0.7173522388059701 -1.7640492537313435 -3.3840597014925375
C 1.7791477611940298 -1.082849253731343 -2.4255597014925376
H 1.4739477611940297 -0.9102492537313429 -3.464259701492538
H 2.1252477611940295 -0.1337492537313434 -2.0010597014925384
C 1.3965477611940298 2.0964507462686566 1.997440298507462
H 1.51704776119403 1.8448507462686567 3.057640298507462
H 2.1256477611940294 1.5207507462686571 1.4165402985074618
C 3.94864776119403 -1.4275492537313434 -3.522959701492538
H 4.81734776119403 -2.087049253731343 -3.615159701492538
H 3.4305477611940303 -1.3641492537313429 -4.484459701492538
H 4.26984776119403 -0.441449253731343 -3.176459701492538
C 2.60904776119403 -3.4296492537313434 -2.8992597014925376
H 1.9825477611940296 -3.869549253731343 -2.119359701492538
H 2.06294776119403 -3.373349253731343 -3.845759701492538
H 3.5215477611940305 -4.019849253731343 -3.0234597014925377
C 3.7281477611940304 -2.060049253731343 -1.156659701492538
H 3.9048477611940298 -1.032549253731343 -0.8295597014925382
H 3.12924776119403 -2.623249253731343 -0.4404597014925382
H 4.68244776119403 -2.5769492537313434 -1.3005597014925383
C 3.1110477611940297 3.755250746268656 2.588740298507462
H 3.40124776119403 4.809350746268656 2.534540298507462
H 2.9823477611940303 3.461750746268656 3.634840298507462
H 3.86514776119403 3.1392507462686563 2.091540298507462
C 1.99744776119403 3.9574507462686572 0.40494029850746194
H 2.67914776119403 3.230350746268657 -0.04295970149253803
H 1.03214776119403 3.981150746268657 -0.10175970149253821
H 2.4399477611940297 4.958250746268657 0.368240298507462
C 0.7418477611940297 4.4992507462686575 2.475440298507462
H -0.18475223880597014 4.424250746268656 1.901240298507462
H 0.57844776119403 4.189650746268656 3.511940298507462
H 1.1210477611940297 5.524350746268658 2.4432402985074617
N 3.00114776119403 -2.025349253731343 -2.490159701492538
N 1.7831477611940298 3.586450746268657 1.862540298507462
C -3.55075223880597 -3.8435492537313434 0.6444402985074619
H -2.62515223880597 -2.2736492537313433 1.7424402985074618
H -4.67195223880597 -1.3478492537313436 1.5102402985074619
H -4.83415223880597 -1.6757492537313432 -0.1945597014925382
H -3.7169522388059697 0.17335074626865676 -0.900559701492538
H -3.9132522388059705 -4.043149253731343 -0.34225970149253815
H -4.35435223880597 -3.9354492537313432 1.3449402985074619
H -2.78115223880597 -4.545049253731343 0.8904402985074619
H -5.24235223880597 1.138950746268657 1.5249402985074618
H -5.92805223880597 0.6501507462686567 -0.006059701492538094
H -4.89895223880597 2.059650746268657 0.08004029850746197
C 3.395280303558782 -2.4973089029113753 3.0629327582215407
O 3.012533882529506 -3.6555067387187172 3.1250491724811305
O 3.332350034434815 -1.7789831941880574 2.0586024233639657
O 3.9047802730786767 -1.8643190932646527 3.994802956448006
O 0.8826461951816937 5.802272402986754 -2.3824011988567437
H 0.8881730576194831 6.443255596839382 -1.6557118870528065
H 1.1563797575698387 6.32074097083914 -3.1539076636847394
O -10.33056920857385 1.7871727561288195 -4.260671877759177
H -9.548968138925426 1.6146459601933127 -4.806841841697757
H -10.680651009261997 0.9044961196747301 -4.067574408627553
O -1.6354786305124582 7.968759569732388 8.03254082169812
H -2.141044976537688 7.696312226895431 7.252065023195833
H -2.003139002801955 8.83637870330709 8.258427594225928
O -1.124668508659065 1.7764265339886642 -4.718747114607442
H -1.6903339525380519 1.2617733398844668 -5.313828665572969
H -1.5449643329620533 1.6761954291637704 -3.8514137934447814
O -7.078423272439328 -4.643578823640428 -4.961127341791574
H -7.130225914397345 -4.180175474713479 -4.111691541163028
H -7.388240494309386 -3.9884759278842266 -5.604412215937204
O 4.353779424315731 2.5768810297244054 -10.895915153534798
H 3.6344314080602373 2.0216821176409967 -10.559373987507987
H 4.198508348067718 3.438411511722538 -10.48044185021815
O -6.838937291732858 -2.737976808770889 5.3372175520292915
H -7.43161061444718 -2.0542739947046247 5.683997239266931
H -7.243575558383165 -3.5685999417183214 5.629270678146485
O 8.925473051877594 5.387216921014887 -4.063524266296711
H 7.97169961441719 5.3663510796405225 -4.233371855501584
H 9.044451703602451 6.160080896820368 -3.491259205650965
O -8.08418224024182 3.2071432571293004 1.542820291366842
H -8.081710830483182 2.902346057679758 2.462635444667505
H -7.62914323855141 2.500341214870099 1.0608116562794438
O -2.917452235741951 -4.674547232604252 -5.432240063328141
H -3.4021917482058686 -5.482100791977623 -5.204529258359107
H -3.1367994124728327 -4.52480232458808 -6.364133417142524
O 8.543237539116305 2.9475816467544953 3.273827464797305
H 8.366805585383698 2.973565632642651 4.2262790147878855
H 8.804486845265318 2.0291084606900265 3.109152783023683
O -2.817833645291767 3.5625410637464663 11.548960972019358
H -2.2115053355934187 3.9542603635071285 10.902517372040705
H -2.2428427150068337 3.3130934496064137 12.287962502592809
O 8.351687766655873 -0.9393668623511598 -7.634325957772452
H 8.521255528573723 -0.5997760532534492 -8.525893237002984
H 9.171130961465142 -1.4002255804200483 -7.399626071192421
O 5.456561198687492 -1.8022975838980329 8.595118078733096
H 5.46532267916473 -1.5822495237078258 9.538764964260928
H 6.385544025123972 -1.7297788008854735 8.32923487392981
O -0.31709905047746967 0.600686244495646 9.333521792148153
H 0.031607399844261086 1.0612006800577638 10.111530547267865
H 0.4580587567619505 0.15786951246440695 8.956685408542553
O -6.9812383266856965 1.9286166646101934 -8.356108783617346
H -6.942454515883946 1.959126492444772 -7.388362782165934
H -6.201207236521971 1.4105746426074917 -8.605399589940689
O -1.09780557081243 -3.664615689983977 5.376209283196439
H -1.709856165505299 -3.0401721931150076 4.958559016042016
H -1.5358250520723242 -3.901100147300049 6.207579224789672
O -7.144704616676788 4.25309224862239 6.237658247701884
H -7.11627482403002 3.3060757977945303 6.4409288694145825
H -8.012609895795698 4.3780039952929934 5.82522713063962
O 9.39534430934579 -0.06348782219311078 2.0938384421729643
H 9.426057422643112 -0.09544088445341004 3.061827627744671
H 8.585173168842616 0.4321223118599735 1.901600926532367
O 6.479920630484173 9.055192642770033 -5.196190878094596
H 6.377883574855129 8.74565717950933 -4.283643020082459
H 6.799850302379711 8.27500522791593 -5.673594844399947
C -4.295887189803967 10.400609802859433 -5.862820906453005
O -3.7318142982367197 11.456326247618435 -5.872960855386735
O -4.859960081371215 9.34489335810043 -5.852680957519275
O 13.111872162295516 -0.8911909309592732 -7.646320156836248
H 13.602836120243914 -0.6957457181782436 -6.834086866643942
H 12.207193711210286 -1.0537767777423381 -7.339587884540259
O -15.781298048514794 6.910283249662285 11.248821366259866
H -16.727614011762412 6.865462390937392 11.045242032274583
H -15.48459442991049 7.719280529453697 10.80559195805548
O 5.950364008235399 1.9522962239216979 -1.99617612120498
H 6.0283755934749585 2.0574386754384557 -1.0360581001484754
H 6.080429256407236 1.0027430443537586 -2.1389827551209635
O -10.508986487007355 7.64744862710847 2.319418891650381
H -9.985611692281909 7.242062204193148 1.6118116352842393
H -9.86610331976141 7.799528806928566 3.0283157787063937
O -0.9204069185357668 12.874254412748076 0.9389298359263311
H -1.463012254315169 12.76689371105974 0.14330399030747992
H -0.5675911628301678 13.773460081263348 0.8620393128699224
O -6.698585127839809 0.30324337125285794 -14.10472446473825
H -6.935623773016015 0.9746144077866616 -13.447426230375372
H -6.668521348030334 -0.5213510916719084 -13.596686980730047
O -15.242797232317134 4.132459366200111 -12.940826748620603
H -15.441633485808023 3.7479350540876584 -12.073893905435993
H -14.28526461832785 4.279287341805219 -12.917701372373767
O -13.45310743084841 10.124133223731125 9.616499626796266
H -13.772441727262944 10.312081104984106 10.511859084202037
H -12.513476016900992 9.922526341550107 9.740634292705607
O 20.010799212556662 -6.787654363738791 -4.195208528365484
H 19.781923412440953 -7.337086163194463 -4.95987049470636
H 19.889283096281126 -5.8806724466163125 -4.51392404383052
O 9.36376207504821 0.7612009742509958 18.28143514685502
H 9.151763003617946 -0.17784449168406025 18.17090296367057
H 8.795656655820054 1.0448239273482924 19.013402494091196
O -13.268670840363926 8.706932518781684 -14.745336835536714
H -14.095197929306782 8.479188710739257 -15.196948489551524
H -13.472907355584088 9.536183850182832 -14.287525062511873
O -1.7159174842706073 0.5587319704624214 -12.302489338436159
H -2.3659855432844474 1.009587572835787 -11.742928706012354
H -0.8924981193115595 0.6124594600535325 -11.794497359589371
O -8.830504229996109 -9.890052964209483 -0.5206907839237624
H -9.280113046109943 -10.04808156571552 0.32301901836536784
H -7.976712694630846 -9.510779668769649 -0.263487117921827
O 20.437290107370394 1.4629304742373153 1.649769371166475
H 19.910937879543347 1.9653068468477937 2.2897214548448126
H 20.547141659856944 2.07413103017225 0.9059088592819386
O -3.1553617457735648 14.66127025580373 4.862374408616784
H -3.848351231215407 14.257065724636293 4.318911781612162
H -3.3489231111518523 15.609840404677428 4.821014829331842
O -0.24634805956287154 -13.220436723376455 -0.6848968000557285
H 0.5826762073327837 -13.522982037694689 -1.0850873229097857
H -0.2868522115508527 -12.279617822286582 -0.9133287446777043
O -9.456492314988168 3.2236975330817437 -7.877724637339781
H -9.388674093617382 3.2195428421355854 -6.911106416792884
H -8.657293226720752 3.6894138602356867 -8.16643048112333
O -5.863062665332721 -13.343715916412402 -10.477695669426002
H -5.207924597337346 -13.935869921500371 -10.876588014578886
H -6.664812017236424 -13.495728365610098 -11.000239577926436
O -9.459141847906507 -14.965574015619035 -3.1891934248108442
H -9.471482411096769 -14.150681590827 -3.713374122105875
H -9.49373882751631 -14.654517067750962 -2.2721282316621365
O 0.5885591894762829 8.797890999300813 -9.593361082621104
H 1.456739716520149 8.387238005969499 -9.722178971246347
H 0.1307461688052225 8.645932046526555 -10.433764354316184