194

C -5.0710522388059704 1.0783507462686561 0.47044029850746183
C -3.8153522388059704 0.1782507462686569 0.19534029850746193
C -4.11845223880597 -1.3219492537313435 0.5608402985074619
C -2.96945223880597 -2.3874492537313436 0.7034402985074619
C -2.52015223880597 0.7359507462686565 0.7384402985074618
C -2.20305223880597 0.7852507462686571 2.097440298507462
C -1.5755522388059702 1.205650746268656 -0.18965970149253808
C -0.9533522388059701 1.2695507462686564 2.508640298507462
H -2.91125223880597 0.4298507462686567 2.840840298507462
C -0.32655223880597006 1.6562507462686575 0.21554029850746192
H -1.7850522388059702 1.178550746268657 -1.2573597014925382
C 0.004447761194029898 1.6956507462686563 1.569740298507462
H -0.7158522388059702 1.2676507462686573 3.5705402985074617
H 0.3943477611940298 1.9193507462686572 -0.5551597014925382
C -1.76045223880597 -2.1592492537313435 -0.1734597014925381
C -0.5287522388059701 -1.936549253731343 0.464840298507462
C -1.8068522388059702 -2.121249253731343 -1.5681597014925381
C 0.6114477611940299 -1.614449253731343 -0.2582597014925381
H -0.4544522388059702 -1.954049253731343 1.5506402985074619
C -0.6479522388059701 -1.8270492537313432 -2.2998597014925384
H -2.74345223880597 -2.290549253731343 -2.092259701492538
C 0.5698477611940298 -1.5506492537313434 -1.6506597014925382
H 1.5072477611940298 -1.351949253731343 0.2991402985074618
H -0.7173522388059701 -1.7640492537313435 -3.3840597014925375
C 1.7791477611940298 -1.082849253731343 -2.4255597014925376
H 1.4739477611940297 -0.9102492537313429 -3.464259701492538
H 2.1252477611940295 -0.1337492537313434 -2.0010597014925384
C 1.3965477611940298 2.0964507462686566 1.997440298507462
H 1.51704776119403 1.8448507462686567 3.057640298507462
H 2.1256477611940294 1.5207507462686571 1.4165402985074618
C 3.94864776119403 -1.4275492537313434 -3.522959701492538
H 4.81734776119403 -2.087049253731343 -3.615159701492538
H 3.4305477611940303 -1.3641492537313429 -4.484459701492538
H 4.26984776119403 -0.441449253731343 -3.176459701492538
C 2.60904776119403 -3.4296492537313434 -2.8992597014925376
H 1.9825477611940296 -3.869549253731343 -2.119359701492538
H 2.06294776119403 -3.373349253731343 -3.845759701492538
H 3.5215477611940305 -4.019849253731343 -3.0234597014925377
C 3.7281477611940304 -2.060049253731343 -1.156659701492538
H 3.9048477611940298 -1.032549253731343 -0.8295597014925382
H 3.12924776119403 -2.623249253731343 -0.4404597014925382
H 4.68244776119403 -2.5769492537313434 -1.3005597014925383
C 3.1110477611940297 3.755250746268656 2.588740298507462
H 3.40124776119403 4.809350746268656 2.534540298507462
H 2.9823477611940303 3.461750746268656 3.634840298507462
H 3.86514776119403 3.1392507462686563 2.091540298507462
C 1.99744776119403 3.9574507462686572 0.40494029850746194
H 2.67914776119403 3.230350746268657 -0.04295970149253803
H 1.03214776119403 3.981150746268657 -0.10175970149253821
H 2.4399477611940297 4.958250746268657 0.368240298507462
C 0.7418477611940297 4.4992507462686575 2.475440298507462
H -0.18475223880597014 4.424250746268656 1.901240298507462
H 0.57844776119403 4.189650746268656 3.511940298507462
H 1.1210477611940297 5.524350746268658 2.4432402985074617
N 3.00114776119403 -2.025349253731343 -2.490159701492538
N 1.7831477611940298 3.586450746268657 1.862540298507462
C -3.55075223880597 -3.8435492537313434 0.6444402985074619
H -2.62515223880597 -2.2736492537313433 1.7424402985074618
H -4.67195223880597 -1.3478492537313436 1.5102402985074619
H -4.83415223880597 -1.6757492537313432 -0.1945597014925382
H -3.7169522388059697 0.17335074626865676 -0.900559701492538
H -3.9132522388059705 -4.043149253731343 -0.34225970149253815
H -4.35435223880597 -3.9354492537313432 1.3449402985074619
H -2.78115223880597 -4.545049253731343 0.8904402985074619
H -5.24235223880597 1.138950746268657 1.5249402985074618
H -5.92805223880597 0.6501507462686567 -0.006059701492538094
H -4.89895223880597 2.059650746268657 0.08004029850746197
C 3.2314872520441718 -1.9347664688159385 2.73006703740087
O 3.146702520125196 -1.0793215337201014 1.8624259763322348
O 2.9395113025682242 -1.7735150044330366 3.920604510251678
O 3.6223897596101047 -3.094109301425908 2.5518317702550024
O -3.3556924581146483 9.28110521860418 6.291095203888998
H -2.5413661771567075 8.772470468185045 6.160210691026424
H -3.7578744742927808 9.309851778288255 5.409967968202107
O -3.109069119109987 -9.348821579264916 1.5925312477243239
H -3.7985437027872653 -9.496376600567189 0.9278360761971562
H -2.3169238072111566 -9.155225071971959 1.0690924819640202
O -8.20247975892262 -5.166962905938475 5.75906227463277
H -9.161816470674296 -5.27015881146023 5.669669682831069
H -7.951872900883734 -5.8517062889108304 6.397250841186144
O -8.719431174331747 -2.0502516249728835 -2.2017023157166817
H -8.484331642199479 -1.979980944510634 -1.2642815999446422
H -8.219469109283319 -2.8204130636959106 -2.5113008236533148
O 10.588943661293161 5.21905233570333 1.8035491875170555
H 10.118739459845568 4.899522554290432 2.5882632020671075
H 10.881462589172017 4.408781323037582 1.3598651702635314
O -4.547937881806552 6.9261714501005684 -2.1783575350139026
H -4.582605731017113 6.8050772712254695 -1.2175757195252448
H -5.280892873480607 7.532050174671551 -2.364502359256549
O -4.660165436390275 -1.6391119693110987 8.547196511576898
H -4.509783521109085 -2.15704178287091 7.742149093916137
H -5.513906428541667 -1.9591351181108103 8.875332835157014
O -3.0170343836998983 5.799775203859833 -0.21827183871562506
H -2.721475230267528 6.60375561215907 0.23474874226644982
H -2.6226197868980146 5.869843497899941 -1.1005923611449262
O -6.663550036275151 4.826726358851538 -1.9627340762661443
H -6.607734705777134 4.869130502292386 -0.9962694393546607
H -6.328668653401629 5.687928987230762 -2.2545326995963983
O 0.7065303520833931 3.8502368279677737 -6.853192155007525
H 0.6144360644313676 4.41311012103353 -6.069827836803552
H -0.14765652834498866 3.3972810491301466 -6.917673005045559
O 6.739975012721969 -0.7356917817240631 -5.608067336153483
H 6.8295722522276225 -0.35090202085856004 -6.492870439395123
H 5.961153379691287 -0.2933877082583163 -5.2382485767333735
O 8.922520530812523 -2.6899413709085023 2.1936410253917304
H 9.097723017633633 -3.5849656819497153 1.8662224429060985
H 7.960124960703858 -2.5999566213020593 2.12538081902313
O -0.6498393775356281 12.730196930295051 2.0843863323821963
H -0.3837333764207136 13.162141958690736 2.909963975923299
H -0.7082637067079176 13.45823222559612 1.4475871875518553
O 7.893545348994917 4.326992500060719 5.450649124439838
H 8.181672011230336 5.2334832819349195 5.265649541234424
H 7.331509693630415 4.101080593111473 4.6943147561227905
O 0.02962174211086599 -7.4821229692201054 11.26996287671382
H 0.5157704562663039 -7.634488604164893 10.445698660632054
H 0.48334453916219355 -6.726754215183668 11.67309512940685
O -0.2841023288584732 -0.9888860055005472 -7.840717770173009
H -0.11796553965284717 -1.936133321853966 -7.959412529255676
H 0.538747877392431 -0.5685573434429392 -8.1326138102724
O 3.5625049955806487 4.41329954671383 -6.37346034354569
H 2.7937576614591384 4.9275352405197035 -6.6625218325010085
H 3.1775511226562356 3.6043313346769312 -6.004213959766083
O 7.0630893360277565 -0.7573343261538357 7.05979734598413
H 7.779478954322278 -0.8739873391055246 6.417811873976294
H 6.836672456525362 0.18223121042027035 6.989697820603361
O -2.6765136164449634 -4.159984505973162 10.228718814577531
H -2.7967111002958287 -5.099724182726035 10.432211472214915
H -1.7986010541238135 -4.11930624464775 9.820580656260702
O 5.736392225389846 7.26290855035209 -1.687098626544168
H 4.866313987404549 6.84649099775339 -1.5947534124174414
H 6.348750748217514 6.51444369877892 -1.7485750429968976
C 4.327421124632079 -14.95645231308364 10.51560557536004
O 5.000315400103309 -14.171056419833304 9.91295738428704
O 3.6545268491608462 -15.741848206333971 11.11825376643304
O 10.454498742282153 14.002887376636062 12.02851193268914
H 10.451457884497522 13.958509541925798 12.996493708277072
H 10.826445523801898 13.150527545509208 11.756298313818766
O -1.8058613418305747 17.379889136344435 -4.751662506158902
H -1.9906710768562288 17.393257130277878 -3.800540003282461
H -1.6297304968911828 16.446392958314185 -4.942777014671082
O -0.9907084366839696 19.715624505574006 13.856149969069234
H -0.739552771267662 19.558586874290647 14.778769810060204
H -1.062947871459385 18.826134259927656 13.478591349430742
O 16.71945170353746 -1.9402038748357802 -8.298173000152602
H 17.672407303114447 -1.7987687168278752 -8.194062106322264
H 16.35214984150815 -1.7061751535915493 -7.432562323183682
O -14.743450176562579 6.507087409013599 -2.5179373488336427
H -14.864398720275407 6.863585946013395 -1.6250501220290752
H -15.262927299855118 5.68910173885278 -2.5157223799267108
O -5.719424068702072 -15.221417291579774 2.041222372646395
H -5.30428318976179 -14.551766919607285 2.6053090564546575
H -6.318206294378776 -15.692958609887924 2.6396123588943796
O 11.525997674905888 -8.379439098609357 -0.666280326943538
H 10.630866631481744 -8.322747068465718 -1.0330142709909884
H 11.670215355757405 -9.33017162931546 -0.5468196225802249
O -15.67941558911556 -5.609845447442856 3.5551810534648904
H -15.100073169256216 -4.893968516321418 3.253767820610607
H -15.183387667230317 -6.415783498122126 3.3468973443623735
O -20.657963726792833 -8.822256396675304 5.989357078781031
H -20.071007669410648 -8.259924655498299 6.516834999140927
H -21.38423288056792 -9.035131295138015 6.594484617552241
O 10.084512627722349 15.82060035683775 2.8192199087415775
H 10.24287457445575 16.194088221470135 3.699217446067194
H 9.81667500991889 16.58389286130849 2.285731851323094
O -4.733351552272895 9.959756555466248 -0.3133431373973222
H -4.695694856311164 9.944504956106897 0.6548080485577582
H -4.927106111802026 9.041471940778255 -0.5545370042119642
O 13.546382387291981 5.973285858037963 6.294325361684161
H 13.258037879924004 5.862499734743768 5.375874907464574
H 12.749265210719212 6.275402830814079 6.755076363715899
O -10.9855593051827 -15.35118404866175 0.035306369650305314
H -11.74103920785754 -14.975487846974852 0.5118248242692829
H -11.343818481127975 -16.151044122015193 -0.3780169544024776
O 5.110856633723574 2.7242784348115854 -1.997978051878632
H 5.010456513455476 2.731033370945963 -1.0342137946103036
H 4.39555431594595 2.1465307510785596 -2.3037756195980017
O 3.0798444058460595 -0.8471061882235262 15.813733515259132
H 3.1438693132641466 -0.6710988706439021 14.86300243220329
H 2.280360105073515 -1.3880633540807068 15.898303851819907
O -0.133139462495937 -9.075068400689007 -6.2823381175312925
H -0.26101143504927604 -8.12542331888937 -6.426526654347083
H 0.3210983462243351 -9.374483234222778 -7.0841989002666415
O -9.854236583829874 13.596754272074733 6.287508735424354
H -10.596593604540018 13.010713832243932 6.498293017535892
H -9.984332128068791 13.811976567788127 5.3517115046649115
O -16.60269242858701 5.152589053345107 13.483108258820202
H -15.900206750241459 5.63847913152292 13.025514486410927
H -17.415791839106763 5.602042802618021 13.207749183834554
O -20.519771234622567 -0.9504929929470975 -11.861983379649983
H -20.477596685961927 -1.0272995565924479 -12.82701675530404
H -20.72867521367799 -0.016495007498669167 -11.710428653517507
O -5.9288449585477885 11.150290462272952 8.479910664688148
H -6.009905684671991 11.513349242374035 9.37466473021215
H -6.119756245379685 10.206909396407642 8.591924009549484