194

C -5.0710522388059704 1.0783507462686561 0.47044029850746183
C -3.8153522388059704 0.1782507462686569 0.19534029850746193
C -4.11845223880597 -1.3219492537313435 0.5608402985074619
C -2.96945223880597 -2.3874492537313436 0.7034402985074619
C -2.52015223880597 0.7359507462686565 0.7384402985074618
C -2.20305223880597 0.7852507462686571 2.097440298507462
C -1.5755522388059702 1.205650746268656 -0.18965970149253808
C -0.9533522388059701 1.2695507462686564 2.508640298507462
H -2.91125223880597 0.4298507462686567 2.840840298507462
C -0.32655223880597006 1.6562507462686575 0.21554029850746192
H -1.7850522388059702 1.178550746268657 -1.2573597014925382
C 0.004447761194029898 1.6956507462686563 1.569740298507462
H -0.7158522388059702 1.2676507462686573 3.5705402985074617
H 0.3943477611940298 1.9193507462686572 -0.5551597014925382
C -1.76045223880597 -2.1592492537313435 -0.1734597014925381
C -0.5287522388059701 -1.936549253731343 0.464840298507462
C -1.8068522388059702 -2.121249253731343 -1.5681597014925381
C 0.6114477611940299 -1.614449253731343 -0.2582597014925381
H -0.4544522388059702 -1.954049253731343 1.5506402985074619
C -0.6479522388059701 -1.8270492537313432 -2.2998597014925384
H -2.74345223880597 -2.290549253731343 -2.092259701492538
C 0.5698477611940298 -1.5506492537313434 -1.6506597014925382
H 1.5072477611940298 -1.351949253731343 0.2991402985074618
H -0.7173522388059701 -1.7640492537313435 -3.3840597014925375
C 1.7791477611940298 -1.082849253731343 -2.4255597014925376
H 1.4739477611940297 -0.9102492537313429 -3.464259701492538
H 2.1252477611940295 -0.1337492537313434 -2.0010597014925384
C 1.3965477611940298 2.0964507462686566 1.997440298507462
H 1.51704776119403 1.8448507462686567 3.057640298507462
H 2.1256477611940294 1.5207507462686571 1.4165402985074618
C 3.94864776119403 -1.4275492537313434 -3.522959701492538
H 4.81734776119403 -2.087049253731343 -3.615159701492538
H 3.4305477611940303 -1.3641492537313429 -4.484459701492538
H 4.26984776119403 -0.441449253731343 -3.176459701492538
C 2.60904776119403 -3.4296492537313434 -2.8992597014925376
H 1.9825477611940296 -3.869549253731343 -2.119359701492538
H 2.06294776119403 -3.373349253731343 -3.845759701492538
H 3.5215477611940305 -4.019849253731343 -3.0234597014925377
C 3.7281477611940304 -2.060049253731343 -1.156659701492538
H 3.9048477611940298 -1.032549253731343 -0.8295597014925382
H 3.12924776119403 -2.623249253731343 -0.4404597014925382
H 4.68244776119403 -2.5769492537313434 -1.3005597014925383
C 3.1110477611940297 3.755250746268656 2.588740298507462
H 3.40124776119403 4.809350746268656 2.534540298507462
H 2.9823477611940303 3.461750746268656 3.634840298507462
H 3.86514776119403 3.1392507462686563 2.091540298507462
C 1.99744776119403 3.9574507462686572 0.40494029850746194
H 2.67914776119403 3.230350746268657 -0.04295970149253803
H 1.03214776119403 3.981150746268657 -0.10175970149253821
H 2.4399477611940297 4.958250746268657 0.368240298507462
C 0.7418477611940297 4.4992507462686575 2.475440298507462
H -0.18475223880597014 4.424250746268656 1.901240298507462
H 0.57844776119403 4.189650746268656 3.511940298507462
H 1.1210477611940297 5.524350746268658 2.4432402985074617
N 3.00114776119403 -2.025349253731343 -2.490159701492538
N 1.7831477611940298 3.586450746268657 1.862540298507462
C -3.55075223880597 -3.8435492537313434 0.6444402985074619
H -2.62515223880597 -2.2736492537313433 1.7424402985074618
H -4.67195223880597 -1.3478492537313436 1.5102402985074619
H -4.83415223880597 -1.6757492537313432 -0.1945597014925382
H -3.7169522388059697 0.17335074626865676 -0.900559701492538
H -3.9132522388059705 -4.043149253731343 -0.34225970149253815
H -4.35435223880597 -3.9354492537313432 1.3449402985074619
H -2.78115223880597 -4.545049253731343 0.8904402985074619
H -5.24235223880597 1.138950746268657 1.5249402985074618
H -5.92805223880597 0.6501507462686567 -0.006059701492538094
H -4.89895223880597 2.059650746268657 0.08004029850746197
C 2.0177965238098166 -1.5572847389096085 3.913885359606424
O 0.8773245818023769 -1.1619618117166828 4.100483943013144
O 2.9864717836161176 -1.3070118865476392 4.6402896578521045
O 2.3797516081400802 -2.268803541144853 2.9697572457398813
O -7.904908326997657 3.853751715123236 7.5601428696768425
H -7.971931149127503 3.534338338957112 6.647755674819357
H -8.820432049658582 3.8492147406889976 7.877566361888844
O 8.991588593244181 -4.247278387723379 -1.268867874785807
H 8.941929663848207 -5.189085290818762 -1.4913563124924187
H 9.41840807943782 -4.234453987108462 -0.3990273116627314
O 9.24958662192959 0.713645627500513 -2.095500431499601
H 9.521781469179173 0.6502236386135256 -3.023323137277162
H 8.617919619737314 1.4484104657370236 -2.0865911592118995
O -5.462119683863286 -8.217870688462403 -2.046387399827996
H -5.254768311841096 -8.137872444171277 -1.103215598759466
H -6.29497337331977 -8.71292637234179 -2.061767455661224
O 9.795577845662024 -2.611520100544351 -7.362968757053046
H 9.749082119585271 -2.214198547637789 -6.480392364918908
H 9.854134120107929 -3.562896708857581 -7.188567907922573
O -8.688931603171412 3.3926783777038434 -1.6582297300176319
H -8.269908705082912 3.5913078803493654 -0.8073869193549873
H -8.514989902265802 2.4485764241737167 -1.7900543495947816
O -3.735677864570336 -6.446965744474513 1.5954649473980478
H -3.4860027923276293 -6.9129611867436624 0.7833824620648278
H -3.072534748089014 -6.731770719761961 2.242063182328328
O 2.6034339440534504 -8.670378824977448 -2.7362335817038863
H 3.502643204821768 -8.936712571170808 -2.492396755348416
H 2.0917976612301334 -9.491088595792512 -2.676019542747636
O 2.496636905863807 -4.883212565743648 4.205932795629674
H 3.3344944085865316 -5.008003061411129 4.676453246005964
H 1.8826270995703434 -4.588836501333355 4.895350401132875
O -0.08370319840879148 3.2680854546909694 8.07412550798689
H -0.7519765002067911 3.462991095559201 7.400040986460291
H -0.2297489209139547 3.9456466775289654 8.751283820750032
O 7.8713289424538395 7.557262231527437 6.140907076884376
H 8.535953749392377 8.108202521486021 5.700786616325834
H 8.385652988196913 6.83021890356966 6.5227980554928795
O -2.810551934711132 0.5951860293412404 6.17110386366002
H -1.9534681646024505 0.5447017614167579 5.721853258086228
H -3.336509194640621 -0.10174418083696335 5.750843007561777
O 2.487213900049577 -3.4429537971866555 -9.433039859052998
H 2.885023676539384 -3.7907925830235873 -8.620806568860692
H 1.930007787929023 -2.711928075308394 -9.126307586757008
O 0.01973563836867176 9.615359190402076 6.329512590037217
H 0.6959977761645595 10.040830562102686 6.877792618623829
H 0.09489919031197003 10.064821118284067 5.474353914618513
O -6.1617694277616195 -5.139861091738462 1.2125250348122587
H -6.076150299568657 -5.285422877323866 0.258350790575564
H -6.222270473777182 -6.033947197328986 1.581186944318778
O 8.579689256150369 0.9339273290996686 -0.0900564369519472
H 7.823182984594304 1.530354831000888 0.014537315118687166
H 8.994054917344268 0.9256345669057411 0.7858398315744894
O 6.865480984826655 -9.068898922636144 3.194664509454851
H 7.297197745999134 -9.32412180236874 4.023790119168932
H 6.96633428115584 -9.848822739092986 2.6285290155640944
O -0.7078749710644243 -7.921923911527068 2.0751624953146863
H -1.144784296073676 -7.606087374243775 1.2699762557794716
H -0.2988578593865294 -8.758373831973834 1.8067999099208427
O -9.706519812185716 7.327443015973674 -2.1157181916824133
H -10.55311173196526 7.051776961307075 -2.4981547283372434
H -9.911643047788374 8.163820753386826 -1.6714674934549922
O -4.77294501148201 6.493327844571447 4.855946276157362
H -4.295201818970852 7.309202040043051 5.068262304927704
H -5.626345230419167 6.59881105037408 5.302648978087419
C -1.3117553974926546 8.596849057831788 1.1719573601482338
O -1.331952459038523 8.721371547637176 2.3622953312881867
O -1.2915583359467862 8.472326568026398 -0.018380610991718872
O -5.139497515772223 -14.100759063007757 12.323357927760068
H -5.748428459731116 -13.72324489097835 11.670936658712005
H -5.452041919511846 -15.01102984956162 12.435985789045171
O 3.450358491059305 2.4616897643048623 8.724358310928627
H 3.429278879577095 2.6074671208769438 7.7666151464055835
H 2.5683165470831457 2.731157856331186 9.02159710507645
O -0.3415824222202417 -13.576494480685584 -4.652343196145551
H -0.2881314647015394 -13.893711479539723 -5.566391185956976
H -1.2933114921240438 -13.50700840210464 -4.483982254465217
O -4.182870578219358 -7.8093522360859735 7.531305521748337
H -4.92999875256319 -8.300252382251529 7.1574286777257505
H -3.9219855106691868 -8.332808713828799 8.30389483162676
O -14.899498497258953 8.714803292117228 6.702922715243352
H -14.98403049038744 8.710362749171297 5.737623807849341
H -15.15309340702397 7.816818495896264 6.964217322530351
O -8.771419310147099 2.935342189393096 -8.28459379410916
H -8.877073450240479 2.996847023691908 -7.323333311753307
H -8.738471870462643 3.858897340607665 -8.576008092288355
O -11.7141148273132 -8.886471936556065 -13.2102629982639
H -11.785262017099564 -9.053730760195544 -14.162066507503198
H -12.374655600595458 -9.477532706295237 -12.818733947480931
O 4.22468242613382 -0.49959299063496676 1.6437001121460437
H 4.281874910814002 -0.5989776778323457 2.605895030313245
H 4.924262330609785 -1.0791396724965636 1.306542070425828
O -10.11519532768229 12.987085136420566 -0.12501183481087796
H -9.401328867028342 13.589722140634688 -0.38228731830131046
H -10.39145551057251 12.581313231717568 -0.9604706410982748
O 5.777648621622945 2.522600075277995 13.595770301160224
H 5.7192693272402 2.4845941598018273 12.629274173244447
H 6.478169814302354 3.1709759994962656 13.762625519242015
O -6.121180883024402 -9.931230647342195 -17.19583245760143
H -5.551966476717443 -10.33030759297246 -17.870887942742492
H -5.953272542852909 -8.980629271530125 -17.280246662004792
O 1.0800205192302874 -9.561770898762637 -11.859219385816615
H 0.453974007536627 -9.45458813993167 -11.127409999223643
H 1.463586092616441 -8.67888004268019 -11.970319032346005
O -0.4239770825666822 -3.719744477570331 -11.713729947018914
H 0.19577521858948277 -3.9235311271383555 -12.43021124026353
H -1.2961734542624832 -3.8071636906300688 -12.126759382639058
O -2.8015941831589988 13.658137601850605 -3.084385205911987
H -2.9120081083226337 13.751639495463696 -2.126244549264579
H -1.842325183127837 13.591456999408024 -3.204045671969541
O 1.1347416611504872 3.370380662136269 16.65252674635469
H 1.556153902379136 3.330595053311807 15.780863861305022
H 0.19410240704071402 3.489383202642996 16.45253141320726
O -18.85184695035793 -9.369988541672338 7.163111482160107
H -19.57982687276614 -8.764507218850227 6.957186842585036
H -18.05571893747725 -8.838148359550926 7.013819311944369
O -4.420357851124767 -18.148616310450137 -4.314420853452683
H -4.683048818502803 -17.219210178248094 -4.392938711187291
H -4.608252207521249 -18.519691253018394 -5.189612856462491
O 0.26356321729508725 -8.318110348945908 7.247572430583853
H 0.36115105593189245 -8.47042316643807 6.295603535988133
H 0.348085216680988 -9.201871086531646 7.635882789216896
O -12.327786701870764 -10.917984836902914 5.88347122179139
H -12.900628120896949 -11.251794132712988 5.176794902972899
H -11.594667861517385 -11.551101498815814 5.909200633506087
O -11.490648723391708 -11.699311102190714 3.502217840133781
H -11.698876638466125 -12.5885402066318 3.8260698002925393
H -10.539612060609056 -11.608048899930795 3.663965856448991