194

C -5.0710522388059704 1.0783507462686561 0.47044029850746183
C -3.8153522388059704 0.1782507462686569 0.19534029850746193
C -4.11845223880597 -1.3219492537313435 0.5608402985074619
C -2.96945223880597 -2.3874492537313436 0.7034402985074619
C -2.52015223880597 0.7359507462686565 0.7384402985074618
C -2.20305223880597 0.7852507462686571 2.097440298507462
C -1.5755522388059702 1.205650746268656 -0.18965970149253808
C -0.9533522388059701 1.2695507462686564 2.508640298507462
H -2.91125223880597 0.4298507462686567 2.840840298507462
C -0.32655223880597006 1.6562507462686575 0.21554029850746192
H -1.7850522388059702 1.178550746268657 -1.2573597014925382
C 0.004447761194029898 1.6956507462686563 1.569740298507462
H -0.7158522388059702 1.2676507462686573 3.5705402985074617
H 0.3943477611940298 1.9193507462686572 -0.5551597014925382
C -1.76045223880597 -2.1592492537313435 -0.1734597014925381
C -0.5287522388059701 -1.936549253731343 0.464840298507462
C -1.8068522388059702 -2.121249253731343 -1.5681597014925381
C 0.6114477611940299 -1.614449253731343 -0.2582597014925381
H -0.4544522388059702 -1.954049253731343 1.5506402985074619
C -0.6479522388059701 -1.8270492537313432 -2.2998597014925384
H -2.74345223880597 -2.290549253731343 -2.092259701492538
C 0.5698477611940298 -1.5506492537313434 -1.6506597014925382
H 1.5072477611940298 -1.351949253731343 0.2991402985074618
H -0.7173522388059701 -1.7640492537313435 -3.3840597014925375
C 1.7791477611940298 -1.082849253731343 -2.4255597014925376
H 1.4739477611940297 -0.9102492537313429 -3.464259701492538
H 2.1252477611940295 -0.1337492537313434 -2.0010597014925384
C 1.3965477611940298 2.0964507462686566 1.997440298507462
H 1.51704776119403 1.8448507462686567 3.057640298507462
H 2.1256477611940294 1.5207507462686571 1.4165402985074618
C 3.94864776119403 -1.4275492537313434 -3.522959701492538
H 4.81734776119403 -2.087049253731343 -3.615159701492538
H 3.4305477611940303 -1.3641492537313429 -4.484459701492538
H 4.26984776119403 -0.441449253731343 -3.176459701492538
C 2.60904776119403 -3.4296492537313434 -2.8992597014925376
H 1.9825477611940296 -3.869549253731343 -2.119359701492538
H 2.06294776119403 -3.373349253731343 -3.845759701492538
H 3.5215477611940305 -4.019849253731343 -3.0234597014925377
C 3.7281477611940304 -2.060049253731343 -1.156659701492538
H 3.9048477611940298 -1.032549253731343 -0.8295597014925382
H 3.12924776119403 -2.623249253731343 -0.4404597014925382
H 4.68244776119403 -2.5769492537313434 -1.3005597014925383
C 3.1110477611940297 3.755250746268656 2.588740298507462
H 3.40124776119403 4.809350746268656 2.534540298507462
H 2.9823477611940303 3.461750746268656 3.634840298507462
H 3.86514776119403 3.1392507462686563 2.091540298507462
C 1.99744776119403 3.9574507462686572 0.40494029850746194
H 2.67914776119403 3.230350746268657 -0.04295970149253803
H 1.03214776119403 3.981150746268657 -0.10175970149253821
H 2.4399477611940297 4.958250746268657 0.368240298507462
C 0.7418477611940297 4.4992507462686575 2.475440298507462
H -0.18475223880597014 4.424250746268656 1.901240298507462
H 0.57844776119403 4.189650746268656 3.511940298507462
H 1.1210477611940297 5.524350746268658 2.4432402985074617
N 3.00114776119403 -2.025349253731343 -2.490159701492538
N 1.7831477611940298 3.586450746268657 1.862540298507462
C -3.55075223880597 -3.8435492537313434 0.6444402985074619
H -2.62515223880597 -2.2736492537313433 1.7424402985074618
H -4.67195223880597 -1.3478492537313436 1.5102402985074619
H -4.83415223880597 -1.6757492537313432 -0.1945597014925382
H -3.7169522388059697 0.17335074626865676 -0.900559701492538
H -3.9132522388059705 -4.043149253731343 -0.34225970149253815
H -4.35435223880597 -3.9354492537313432 1.3449402985074619
H -2.78115223880597 -4.545049253731343 0.8904402985074619
H -5.24235223880597 1.138950746268657 1.5249402985074618
H -5.92805223880597 0.6501507462686567 -0.006059701492538094
H -4.89895223880597 2.059650746268657 0.08004029850746197
C 2.6528024170386377 1.7415097298365059 -3.5128165871163834
O 3.0507550924587825 1.6549827511945077 -4.6643035599879985
O 3.375927660451658 1.8165400587791323 -2.5127706900808415
O 1.4653563317424163 1.76743357128119 -3.1693808094818583
O 2.889287504012874 -2.778995419659468 4.596063568603522
H 2.6514316366040607 -1.9377916450866701 5.014116379721542
H 2.30687658454018 -3.425320907301456 5.022704904157539
O 1.3558296330324338 5.071882689585696 -8.405014582929043
H 0.4160677034048992 5.118406290171068 -8.636640201355215
H 1.7309461025299293 4.473031611071459 -9.06805829519398
O -5.838963666095012 2.7858271618752584 -8.962397101975089
H -5.6456077167261105 3.23751361919215 -8.127196420689344
H -5.114256636995298 2.1496822715709247 -9.057693192205232
O 9.201733864963769 0.5722101681447205 -1.224252514187806
H 9.151148157045888 0.7167605763636775 -0.2674277535664158
H 8.379562978858349 0.9572980112721732 -1.5629327932358654
O -7.99760783407513 8.024374184896274 -2.350964204269136
H -8.832866061246474 7.54951707952751 -2.476748862806594
H -7.321361165859402 7.336107661086321 -2.4400797485343744
O 5.432045577547714 -1.3297529129497028 6.557960774299982
H 4.700205060933899 -1.0486402593400683 5.988441247748893
H 5.950215064814366 -1.9255376545948955 5.996264354168444
O -6.367015216798702 -3.8863862232518924 -2.716591768389721
H -6.714235628239057 -3.979881711055434 -1.8167784896815378
H -6.862688942363248 -4.543311460613953 -3.2281763015821974
O 0.14202647223745823 8.284060135484793 1.2560019783025358
H 0.8781413525317026 8.251051902139206 1.885297375108197
H -0.6005902117239085 7.897608806372917 1.7439956004226274
O -7.022311904180857 -7.9971580839376655 6.663565330778616
H -7.973764367883462 -8.110751728306557 6.519336172238348
H -6.97057113015073 -7.377113736464112 7.4064178354986705
O 4.226916795663625 -2.614716310507704 -8.781766973000337
H 5.031284607767142 -2.994647314469707 -9.165970320175017
H 3.513813868809547 -2.969240729957798 -9.333816423707177
O -1.497900386350407 8.646145914611253 -2.8320911130235324
H -2.3351475310299903 8.173957509492727 -2.709524046902538
H -1.2766586809526153 8.964681671435905 -1.9440882843586564
O -3.914233803334496 0.011217520646455537 -5.711145773839247
H -3.205926815277014 -0.42433528343349813 -6.208702124845872
H -4.723368875375019 -0.2585484833614258 -6.1710247607212265
O -2.227786808884072 7.688223393467489 -0.1529655830978851
H -2.3530664658362026 7.929862067888804 0.7770253391577397
H -2.9556379719747126 8.134832830732496 -0.6109335287375748
O 0.7864772942946998 10.303984208431899 -4.798074723044934
H 0.21886210068916934 10.068652062115133 -4.048808995950665
H 1.1162272757016178 9.451141322484613 -5.118833052556798
O -7.186258858072874 -6.313928698063727 2.7700444347544746
H -7.1686902499528955 -6.792383900587835 3.6125047128010666
H -6.268382751288577 -6.030724221313295 2.642527293777201
O -0.9205401017118122 1.8449981034291731 6.592600352121632
H -0.8976692876048331 1.982226992900352 7.551564644812758
H -1.357620841503841 0.9863539208694704 6.4893892143542775
O 6.792695978809283 4.540265079319236 7.060728420800053
H 6.77071526441493 4.869456189381493 6.14962062358246
H 6.112087329128374 5.060203031606692 7.5139373528067575
O -8.155375312484475 -1.1267344438572684 -2.6616363053935146
H -8.1541330312103 -1.0831654533875577 -3.629658803430976
H -7.8704779699451795 -0.2421669247690128 -2.3871627134250066
O 6.655818824415554 2.0786276639099768 -7.443641646490076
H 6.850071182071087 2.964874471390843 -7.783935599823431
H 6.047777721027739 1.7044278551628622 -8.098792365046158
O -7.474609917274379 2.8303269693472064 -3.4237290558415676
H -8.021471734415176 3.326379493935166 -4.051296902933319
H -7.823753493236046 1.927679836018848 -3.4715710913207927
C 11.832262669098549 2.76724347979746 -10.551773483778703
O 11.819993722887741 1.7787298807939589 -11.226687252229176
O 11.844531615309357 3.7557570788009613 -9.876859715328226
O -16.73397685123095 -13.237422809873271 -9.371342179490165
H -16.24008083419837 -12.47932321196621 -9.718212588883233
H -16.9313946723724 -13.767857763198798 -10.157870569623865
O -5.287069554432006 4.691361895805441 7.718702648275421
H -5.077574962413403 3.9212211130513257 8.268213837928407
H -4.419850580053903 5.030127368334268 7.4501302196813635
O -16.415333353223556 -6.28938436795859 1.0300550104737605
H -15.798449308411746 -6.607980952708783 1.70601184958565
H -17.238916942551953 -6.137784108817773 1.5175889858205012
O 4.380100216007785 -5.614862277330891 7.980044811130213
H 5.040019910959051 -5.147680406415374 7.445990083032702
H 4.452912829485923 -6.5361710510272495 7.688753872155798
O -10.983991616995542 22.676795740790794 -5.965616026156486
H -10.332360751564696 22.571130366165644 -5.256264631766388
H -11.076462304636177 23.637000046033872 -6.057370091025161
O -1.3489097581417422 13.781737267207934 -6.4810579264000685
H -0.7415258350966702 14.315729417621997 -7.014822397138375
H -2.1046101670461272 14.36882870930317 -6.328734340241258
O -6.188958036024214 -7.953569105178205 -12.268803326627411
H -6.20807780393082 -8.000410426253072 -11.301121725058405
H -6.557742262026727 -8.8038464456354 -12.551625856240534
O -6.5559105746056785 10.314741464773112 15.908939306858521
H -6.057327351142167 10.389710764403445 16.73644261820759
H -7.27797810991701 9.7057581772267 16.12508688199778
O -1.6854869005234896 -16.849310487557027 5.2115015256682335
H -1.494720169239308 -17.363736713737534 6.010213657135405
H -2.6432568500419764 -16.706826624797557 5.248066768078144
O -7.987227531966782 -0.8469145244255349 13.222257886768812
H -8.722125206118521 -0.21546240257520344 13.234945803740427
H -7.217540844000192 -0.3153978993905362 13.475308126797206
O 12.407995738181082 -5.108644313145722 -10.59891283071154
H 12.900181844124717 -4.5942846670948 -9.941528355286078
H 12.03129419931378 -5.841248640835705 -10.088668973360065
O 0.9028555077822986 -11.895468539619849 -23.845520158685844
H 0.9639935941325994 -12.40340501093052 -23.02258028700026
H 1.8099739928809129 -11.89177246222695 -24.18623167493426
O -0.30919437866876986 11.034266536691906 7.559782998434457
H -0.7885390201471774 10.626233900079553 8.296468439477723
H -0.6889248544905322 10.615385762405786 6.772823274582187
O -12.883786732220056 -15.909040399006324 -7.104080834616551
H -12.622941452519916 -16.833681545568123 -7.230436867488112
H -12.548792539791947 -15.461119265743202 -7.895350380167065
O -0.5113786120719972 -13.094361954267242 -5.52739677205569
H -0.07514276624740424 -13.128283625353665 -4.662807294934665
H -1.26871395004212 -12.506993474877925 -5.3845563030647146
O -9.95128052141966 4.974860625406529 -4.578377721249952
H -9.732147191313404 5.913221940138885 -4.476270015613656
H -10.787453001300987 4.876237338399331 -4.098741426283644
O 10.286396684283961 12.508379518060602 4.564514932501055
H 10.622019592169451 11.936997603965034 3.8575161143641545
H 9.913548675511569 13.268842017425534 4.093725070976717
O -3.4950025950373367 5.457345091914927 14.27209443488979
H -3.1343053544222768 5.472932007082161 13.37286036881564
H -3.232257673056347 4.5898363811930585 14.614666598228965
O -0.22390655511925472 -4.430587350966922 11.759546748493511
H -0.2070621050476414 -4.942192218497732 10.936780632929331
H 0.25885114976611356 -3.6194099028416327 11.540690425014489
O -18.0252078901501 8.533039940416831 7.818951850606297
H -18.02346095424243 8.327101349839344 8.765816995189141
H -17.256466274474338 8.054542529460354 7.473932285456478