194

C -5.0710522388059704 1.0783507462686561 0.47044029850746183
C -3.8153522388059704 0.1782507462686569 0.19534029850746193
C -4.11845223880597 -1.3219492537313435 0.5608402985074619
C -2.96945223880597 -2.3874492537313436 0.7034402985074619
C -2.52015223880597 0.7359507462686565 0.7384402985074618
C -2.20305223880597 0.7852507462686571 2.097440298507462
C -1.5755522388059702 1.205650746268656 -0.18965970149253808
C -0.9533522388059701 1.2695507462686564 2.508640298507462
H -2.91125223880597 0.4298507462686567 2.840840298507462
C -0.32655223880597006 1.6562507462686575 0.21554029850746192
H -1.7850522388059702 1.178550746268657 -1.2573597014925382
C 0.004447761194029898 1.6956507462686563 1.569740298507462
H -0.7158522388059702 1.2676507462686573 3.5705402985074617
H 0.3943477611940298 1.9193507462686572 -0.5551597014925382
C -1.76045223880597 -2.1592492537313435 -0.1734597014925381
C -0.5287522388059701 -1.936549253731343 0.464840298507462
C -1.8068522388059702 -2.121249253731343 -1.5681597014925381
C 0.6114477611940299 -1.614449253731343 -0.2582597014925381
H -0.4544522388059702 -1.954049253731343 1.5506402985074619
C -0.6479522388059701 -1.8270492537313432 -2.2998597014925384
H -2.74345223880597 -2.290549253731343 -2.092259701492538
C 0.5698477611940298 -1.5506492537313434 -1.6506597014925382
H 1.5072477611940298 -1.351949253731343 0.2991402985074618
H -0.7173522388059701 -1.7640492537313435 -3.3840597014925375
C 1.7791477611940298 -1.082849253731343 -2.4255597014925376
H 1.4739477611940297 -0.9102492537313429 -3.464259701492538
H 2.1252477611940295 -0.1337492537313434 -2.0010597014925384
C 1.3965477611940298 2.0964507462686566 1.997440298507462
H 1.51704776119403 1.8448507462686567 3.057640298507462
H 2.1256477611940294 1.5207507462686571 1.4165402985074618
C 3.94864776119403 -1.4275492537313434 -3.522959701492538
H 4.81734776119403 -2.087049253731343 -3.615159701492538
H 3.4305477611940303 -1.3641492537313429 -4.484459701492538
H 4.26984776119403 -0.441449253731343 -3.176459701492538
C 2.60904776119403 -3.4296492537313434 -2.8992597014925376
H 1.9825477611940296 -3.869549253731343 -2.119359701492538
H 2.06294776119403 -3.373349253731343 -3.845759701492538
H 3.5215477611940305 -4.019849253731343 -3.0234597014925377
C 3.7281477611940304 -2.060049253731343 -1.156659701492538
H 3.9048477611940298 -1.032549253731343 -0.8295597014925382
H 3.12924776119403 -2.623249253731343 -0.4404597014925382
H 4.68244776119403 -2.5769492537313434 -1.3005597014925383
C 3.1110477611940297 3.755250746268656 2.588740298507462
H 3.40124776119403 4.809350746268656 2.534540298507462
H 2.9823477611940303 3.461750746268656 3.634840298507462
H 3.86514776119403 3.1392507462686563 2.091540298507462
C 1.99744776119403 3.9574507462686572 0.40494029850746194
H 2.67914776119403 3.230350746268657 -0.04295970149253803
H 1.03214776119403 3.981150746268657 -0.10175970149253821
H 2.4399477611940297 4.958250746268657 0.368240298507462
C 0.7418477611940297 4.4992507462686575 2.475440298507462
H -0.18475223880597014 4.424250746268656 1.901240298507462
H 0.57844776119403 4.189650746268656 3.511940298507462
H 1.1210477611940297 5.524350746268658 2.4432402985074617
N 3.00114776119403 -2.025349253731343 -2.490159701492538
N 1.7831477611940298 3.586450746268657 1.862540298507462
C -3.55075223880597 -3.8435492537313434 0.6444402985074619
H -2.62515223880597 -2.2736492537313433 1.7424402985074618
H -4.67195223880597 -1.3478492537313436 1.5102402985074619
H -4.83415223880597 -1.6757492537313432 -0.1945597014925382
H -3.7169522388059697 0.17335074626865676 -0.900559701492538
H -3.9132522388059705 -4.043149253731343 -0.34225970149253815
H -4.35435223880597 -3.9354492537313432 1.3449402985074619
H -2.78115223880597 -4.545049253731343 0.8904402985074619
H -5.24235223880597 1.138950746268657 1.5249402985074618
H -5.92805223880597 0.6501507462686567 -0.006059701492538094
H -4.89895223880597 2.059650746268657 0.08004029850746197
C 3.741029483096014 -1.243931602647308 1.9440704082473244
O 4.49496062501634 -2.2028972410877596 1.8828475682837142
O 2.698004737897492 -1.1987334624582084 2.606405650497806
O 3.904420830957803 -0.170258645880895 1.353157526552927
O -8.403135588709853 -7.07293213689043 2.832535039149841
H -8.583888052733657 -6.930153060739014 3.7737629812885523
H -9.174872137351594 -7.567611881240856 2.5184067304606446
O 6.379396507851897 8.947426984064432 -5.124493670313893
H 5.451997669793798 9.117067203226412 -4.900616587719085
H 6.446810181536645 7.980775269121136 -5.125836390505555
O -1.8674412223859327 4.647718405792099 -4.925204061901686
H -1.6006972390927903 4.399028375042313 -4.027446704436664
H -2.804052904822967 4.402886734063648 -4.967369843539401
O -8.61197486829078 -0.6481139154283642 6.371159133459722
H -8.611143091314522 -0.5932555118974361 5.40371031279317
H -8.200977906464995 -1.5056613238448366 6.5573200423212965
O -3.885101325639642 -4.809055251013946 5.61341311195955
H -3.8992522239332854 -5.1180944885036626 6.531706016576186
H -4.776403888867489 -4.456397535372213 5.471377128202532
O 5.373511521828892 -6.096598017937517 -4.209839032840835
H 4.981663559939053 -5.977986989481012 -5.088106620533374
H 5.040416669215181 -6.958969348009395 -3.9194505817407457
O -6.687098881579074 -4.977290653985831 -0.7061523280239269
H -7.13085046287917 -5.230132491205439 -1.529634505332627
H -6.47071007436178 -5.823917223015467 -0.2873907239767294
O 0.9524077342725815 -6.229969926127235 -4.274664007524541
H 0.2809417665844046 -5.66084195232723 -4.6798727939234555
H 1.5377616994605456 -5.610040741039629 -3.8142180441202074
O -1.6345047096204637 7.8932710250691756 -6.931898130791911
H -0.9817669776771533 8.48976613190195 -7.328249487194359
H -1.5795533221231963 8.083231188396814 -5.983289978992306
O 1.6123340069888399 2.234756318050461 6.937466977614042
H 1.5025448340955183 2.1962160593916127 7.899458839782278
H 0.8716996377067094 1.7113402425623452 6.5962071246300145
O -0.6010190598517271 5.2216681881474445 -8.822753287526615
H -0.004715300715375292 5.324912605641337 -9.579542408746129
H -1.0526122605712782 6.076864838403073 -8.762220529821187
O -8.502903309599366 -3.4939376631284276 -1.7759334814179382
H -8.72653892966909 -2.552993245758782 -1.835750450222192
H -8.075880328020896 -3.6873955892082715 -2.623982624062818
O 4.7036346892800465 6.147093357867315 -1.1099378853984252
H 4.313782742004218 6.4517948259380455 -0.2767873399021224
H 4.887566811469298 6.9653313548202505 -1.5953423549590247
O 3.5200918064045235 7.438482674048314 -4.916968645992966
H 3.1168184233989322 7.2727766694332505 -4.051590430705719
H 2.851544800308467 7.954822616930995 -5.391731648262421
O 4.958624902956863 6.235350603816142 7.813014360832625
H 4.6993768666256575 6.276778016613717 6.880254165483727
H 4.71670412856848 5.336866548895176 8.083500379458549
O 5.726341762206903 -5.605567013449865 4.803018491543176
H 5.687573177857308 -6.210204673201664 5.5592444195418125
H 6.351022307076702 -6.029916648462985 4.195841788741266
O -7.165740776042785 -6.0866572542674335 -5.307901727576457
H -7.964167581204733 -6.525134381221413 -4.97741753304203
H -6.506339468030387 -6.795870998310051 -5.3420737124849635
O -5.208455850621727 -5.095979339203318 -6.5547433494008756
H -5.149220276034284 -4.647271208088682 -5.697935601609746
H -4.301496966228311 -5.071420661278088 -6.8950144143746925
O -4.441341956973668 -0.48770624447555144 3.933273749728418
H -4.701607986024042 0.4023605965090522 4.214360870746153
H -4.085520119788104 -0.8927504089253893 4.7384395645311965
O 1.4387744167188812 -8.53358169456094 -0.3149758562611326
H 1.5638351425957797 -8.394849403771012 0.635855634190947
H 0.4799315730592131 -8.465630253227808 -0.43730715676672577
C 1.5156945674071292 -6.896093789939608 18.81878211837017
O 1.8548332768630091 -6.25451925737648 19.770719780307655
O 1.17655585795125 -7.537668322502735 17.866844456432688
O -5.5373120684261075 8.648198061199386 5.297113380679539
H -5.773713317953552 7.812301548229016 5.726483647146422
H -6.294231219554143 9.225901289176218 5.476819594653236
O 10.838881094746487 -3.8260339276252227 -11.112066376178
H 10.90034718639958 -3.815396922288608 -10.145073030495436
H 10.78248870691646 -2.8892451704014324 -11.353331100565834
O -14.757966117859482 -18.09028313670384 -2.7450143134984657
H -13.807077145216613 -17.988620549556565 -2.588674181156451
H -14.957686156622641 -17.420705829915327 -3.4163861036790513
O -15.081623813480185 8.440240386062554 -3.8197037656678474
H -15.253015873713615 8.562333739583682 -4.765581840059523
H -15.965325358040136 8.416254845636935 -3.4228937125027987
O 8.004931728277494 13.346487907521258 8.543191833851262
H 7.854415244129421 12.874008732757193 7.710680227737588
H 7.551418874166221 14.193451746616025 8.41693696970062
O -12.393178559348538 -6.413323417311247 5.7811042276583
H -12.03666366004438 -7.23267245648279 6.155979720966166
H -11.613005279153013 -5.850709175544961 5.663814790236584
O -9.435980614468628 1.9995128608917325 -15.96371206765974
H -9.440908156425918 2.0556127640303856 -16.931077498661953
H -10.002705787567258 2.733966115029905 -15.683778254121293
O -3.595649930192964 -11.243999194561077 -11.264558661669396
H -3.645060123531278 -11.25485907077554 -10.29687686852514
H -4.504531666092056 -11.425404915643965 -11.547379981246701
O 13.96828629250436 -20.025272123050158 5.42951433663602
H 14.140621730159156 -19.42436705322488 4.689121906308289
H 13.514840399264848 -20.777327180537903 5.019926792011757
O -8.899892065740435 -12.102222360109499 -6.465682226025903
H -9.071975456343099 -11.256627586297826 -6.024860105345598
H -9.403660499664154 -12.042559351625696 -7.291284814866748
O -2.2737207241519517 -7.7028050492049385 -8.406405489812473
H -2.0062765892772725 -8.19983864112434 -7.618751631747374
H -1.514346766419736 -7.1297489812592785 -8.590578993902419
O 18.19280337942585 11.837352092776262 0.9686582365182543
H 18.91255962535271 11.435417524241634 1.4779390097329506
H 17.91434716629488 12.59040760060126 1.5111814929812315
O -16.158095292432222 -6.963628081128411 -6.270979079727296
H -15.866103143440824 -7.3592606384835735 -5.436004336763174
H -16.89934405604639 -7.522734084306743 -6.548310455432274
O -0.09759085332825146 -5.883844964965128 5.229095773035616
H 0.5013180238570238 -6.3669640123349005 4.640137795080314
H 0.47991658777034685 -5.251902602124258 5.683073690805684
O 15.544217712767118 -12.059737695715445 -7.242734789102896
H 15.213924818896517 -12.193435904863092 -6.341625056590094
H 16.208928625642823 -12.755958124043108 -7.354083169347923
O -8.237761612108695 18.45416292132826 -3.827762529004745
H -7.969032857080709 18.694885947096566 -4.727098193807415
H -7.683243357643427 17.688579065557825 -3.614800538150816
O -6.527787437273476 1.1490604429340727 6.0128281827747125
H -5.97864948591484 1.9366508713287778 5.881999346585266
H -5.928438765923316 0.41167855393218256 5.823062368617369
O -5.320060943379451 21.321622405931727 5.9720097974559545
H -5.801433321916102 21.837094267446417 5.3075274801076695
H -4.39494603594305 21.579598165856197 5.843274178335478
O 7.4557548028506595 -11.641136038770535 9.466731758985514
H 6.760102143603424 -11.484674517116753 8.810565220045868
H 8.137704832131988 -10.98949062723768 9.24477599877332
O 6.449621820386657 -10.85955304176268 0.9404666875792835
H 6.214840345652744 -10.270566723527713 0.20770469828549631
H 7.310765342013809 -11.221650324652096 0.683018950778806