194

C -5.0710522388059704 1.0783507462686561 0.47044029850746183
C -3.8153522388059704 0.1782507462686569 0.19534029850746193
C -4.11845223880597 -1.3219492537313435 0.5608402985074619
C -2.96945223880597 -2.3874492537313436 0.7034402985074619
C -2.52015223880597 0.7359507462686565 0.7384402985074618
C -2.20305223880597 0.7852507462686571 2.097440298507462
C -1.5755522388059702 1.205650746268656 -0.18965970149253808
C -0.9533522388059701 1.2695507462686564 2.508640298507462
H -2.91125223880597 0.4298507462686567 2.840840298507462
C -0.32655223880597006 1.6562507462686575 0.21554029850746192
H -1.7850522388059702 1.178550746268657 -1.2573597014925382
C 0.004447761194029898 1.6956507462686563 1.569740298507462
H -0.7158522388059702 1.2676507462686573 3.5705402985074617
H 0.3943477611940298 1.9193507462686572 -0.5551597014925382
C -1.76045223880597 -2.1592492537313435 -0.1734597014925381
C -0.5287522388059701 -1.936549253731343 0.464840298507462
C -1.8068522388059702 -2.121249253731343 -1.5681597014925381
C 0.6114477611940299 -1.614449253731343 -0.2582597014925381
H -0.4544522388059702 -1.954049253731343 1.5506402985074619
C -0.6479522388059701 -1.8270492537313432 -2.2998597014925384
H -2.74345223880597 -2.290549253731343 -2.092259701492538
C 0.5698477611940298 -1.5506492537313434 -1.6506597014925382
H 1.5072477611940298 -1.351949253731343 0.2991402985074618
H -0.7173522388059701 -1.7640492537313435 -3.3840597014925375
C 1.7791477611940298 -1.082849253731343 -2.4255597014925376
H 1.4739477611940297 -0.9102492537313429 -3.464259701492538
H 2.1252477611940295 -0.1337492537313434 -2.0010597014925384
C 1.3965477611940298 2.0964507462686566 1.997440298507462
H 1.51704776119403 1.8448507462686567 3.057640298507462
H 2.1256477611940294 1.5207507462686571 1.4165402985074618
C 3.94864776119403 -1.4275492537313434 -3.522959701492538
H 4.81734776119403 -2.087049253731343 -3.615159701492538
H 3.4305477611940303 -1.3641492537313429 -4.484459701492538
H 4.26984776119403 -0.441449253731343 -3.176459701492538
C 2.60904776119403 -3.4296492537313434 -2.8992597014925376
H 1.9825477611940296 -3.869549253731343 -2.119359701492538
H 2.06294776119403 -3.373349253731343 -3.845759701492538
H 3.5215477611940305 -4.019849253731343 -3.0234597014925377
C 3.7281477611940304 -2.060049253731343 -1.156659701492538
H 3.9048477611940298 -1.032549253731343 -0.8295597014925382
H 3.12924776119403 -2.623249253731343 -0.4404597014925382
H 4.68244776119403 -2.5769492537313434 -1.3005597014925383
C 3.1110477611940297 3.755250746268656 2.588740298507462
H 3.40124776119403 4.809350746268656 2.534540298507462
H 2.9823477611940303 3.461750746268656 3.634840298507462
H 3.86514776119403 3.1392507462686563 2.091540298507462
C 1.99744776119403 3.9574507462686572 0.40494029850746194
H 2.67914776119403 3.230350746268657 -0.04295970149253803
H 1.03214776119403 3.981150746268657 -0.10175970149253821
H 2.4399477611940297 4.958250746268657 0.368240298507462
C 0.7418477611940297 4.4992507462686575 2.475440298507462
H -0.18475223880597014 4.424250746268656 1.901240298507462
H 0.57844776119403 4.189650746268656 3.511940298507462
H 1.1210477611940297 5.524350746268658 2.4432402985074617
N 3.00114776119403 -2.025349253731343 -2.490159701492538
N 1.7831477611940298 3.586450746268657 1.862540298507462
C -3.55075223880597 -3.8435492537313434 0.6444402985074619
H -2.62515223880597 -2.2736492537313433 1.7424402985074618
H -4.67195223880597 -1.3478492537313436 1.5102402985074619
H -4.83415223880597 -1.6757492537313432 -0.1945597014925382
H -3.7169522388059697 0.17335074626865676 -0.900559701492538
H -3.9132522388059705 -4.043149253731343 -0.34225970149253815
H -4.35435223880597 -3.9354492537313432 1.3449402985074619
H -2.78115223880597 -4.545049253731343 0.8904402985074619
H -5.24235223880597 1.138950746268657 1.5249402985074618
H -5.92805223880597 0.6501507462686567 -0.006059701492538094
H -4.89895223880597 2.059650746268657 0.08004029850746197
C 1.0520162611244912 -1.2572123300560443 4.972200329951112
O 0.9553141366270765 -0.8048077578489488 6.102578275933693
O 2.115619016741312 -1.501323320018465 4.391002887661599
O 0.10122563610753631 -1.5409402749245342 4.234539144120807
O 4.946525458508182 2.467106503427322 -6.985543849435642
H 4.470098245817067 3.167180568572817 -6.514501631351067
H 5.877944437399782 2.7211190292761303 -6.902488044265637
O 3.6816639469532815 11.597576412351472 -1.970658965426936
H 3.878272465079739 11.909652797879199 -2.866717432880969
H 3.75981278190081 10.633945828309987 -2.0360103341670555
O -8.177385214178392 2.409612671755727 6.804557980821528
H -8.008210095983898 2.320399869732227 5.854616818307241
H -8.228080436386525 1.4948630087979384 7.120192251558848
O 3.1119466050106106 -2.5788414202545047 7.572296662179431
H 2.4068016412061644 -2.0757598198703495 8.006631602376675
H 3.8553205532015618 -1.958205757699841 7.538113452612038
O -1.873369443631813 5.413253839131046 9.83945499595603
H -1.314786192966209 6.025304323061616 10.341795830545657
H -1.6695320548397241 5.616133224402322 8.914116021167672
O 7.339578121920308 -2.646813291238835 -1.0728112028037857
H 7.597756475936316 -2.4532436729581804 -1.9865081423281925
H 6.6163071809271035 -2.0262469087671042 -0.8974873448700957
O -2.990702695922259 -8.220554417320587 -7.113698564960337
H -2.469300723977693 -8.852020385321437 -7.63173145176297
H -2.6440051018198902 -7.356013569496498 -7.380778786967194
O 6.35282745988451 -0.16246166328528233 1.1701770334203099
H 6.745052963305305 -1.0480999663412367 1.197949457269771
H 6.0271149077651405 -0.02234201869443675 2.0719751055471143
O 5.155147568699643 -1.2447774414957082 5.357739649272318
H 5.510828750533483 -1.5599492369709427 4.5132723656394935
H 4.407473109111608 -1.8360106203840045 5.532061693091732
O -8.684103555606645 2.763324420762982 -5.507708694586712
H -7.911329142547928 3.1980506521085172 -5.1168120750031365
H -9.057743106994792 3.4356881223757196 -6.097015476061422
O 2.0176909026355094 8.088278210456172 2.1566139729507112
H 2.452030118016113 7.5546139717925405 1.4743242373880778
H 1.6754438524272488 8.854382668845396 1.6719358738376018
O -1.2742242357212392 5.683420583279247 -7.470432911639248
H -2.003853311225512 5.663055785960173 -6.8330993693641435
H -1.6475470544962256 5.276507931555506 -8.266682942188103
O 1.1713400117263792 -8.663745212911234 -3.2198094580266092
H 1.4173134257867308 -8.526818170033264 -4.147017860385103
H 1.6036777229786372 -9.498201050041661 -2.9837384864775465
O 1.4747215665615672 10.456369014346636 -0.6128361555703004
H 2.070766802024774 10.402963592188586 0.14929591636062955
H 0.6330773048018425 10.748517618047256 -0.23172452585702796
O -5.8322435842793965 0.11024132451006297 -7.818779941524115
H -6.040843363865205 -0.8056745554677465 -7.580974160136809
H -6.438404084289568 0.30635294782824307 -8.54889748255907
O -10.529506904999636 3.1810562081538207 0.4318686776966487
H -10.25950914609489 3.6570621225258466 -0.3678105933672371
H -9.69223657476781 2.96115929706897 0.8672830629767239
O 0.4184285496691804 4.657367058618844 5.556769545346611
H 1.0672555583734442 5.376899871569828 5.540539919265794
H 0.9601004335050376 3.854235183839716 5.579849975920492
O 5.483398299202779 -6.191079684080197 -2.876386666342678
H 5.624177511232192 -6.11214044398073 -3.831853655166937
H 6.283005635642658 -6.636284499891484 -2.5579801277949255
O -6.254761949340114 6.27909766558499 0.467650453269619
H -5.34219603229609 6.376427146153478 0.15665563633231552
H -6.159107920581576 5.964576206141187 1.379181309923194
O -10.859411748505455 -1.4768760600197863 4.077682969089994
H -10.909654526174542 -2.0661569026997086 3.3100951183246656
H -10.055732157021435 -0.9582691343630456 3.922415731100318
C 0.6965477030220597 -13.080208616683914 -2.534356691833766
O -0.2997578568488122 -12.987762321130548 -1.877358083685432
O 1.692853262892932 -13.17265491223728 -3.1913552999820998
O 6.525902327409906 -16.997374582291926 -1.8655064385684241
H 6.375477833086152 -16.334983006647356 -1.1744368118863147
H 7.4819454020796154 -17.152669274975093 -1.8367463603256802
O 15.393658092076357 -9.246757565027039 -10.173056402142794
H 14.593849305332672 -8.73210278466227 -10.358538796442877
H 15.962472530921932 -9.079715167040765 -10.93954770394327
O 14.223215881598463 15.574276075981317 1.944148359703811
H 14.005012727284921 15.081068821710497 1.139100942043048
H 13.363803429674434 15.878740745401679 2.2722846832839254
O -5.691916691984232 -10.961151541393232 -6.3656635743208385
H -6.194931194666393 -11.671909809201527 -6.790829955557136
H -5.479169628048204 -10.357442916719938 -7.093150019267877
O -13.610674080734903 10.406801194524009 -6.4032485075136565
H -13.572094279705125 10.181926859043479 -5.461489255318758
H -14.193624082670018 9.731456667537369 -6.781456134899784
O 1.8087061568057958 18.696853354443036 8.937178982436022
H 1.7812107307467189 18.690901961920282 9.905773809684685
H 0.8796463979618547 18.78754036881074 8.677206341140995
O -0.7221376967058397 -16.403367397461484 5.407574932833121
H -0.5242806467615555 -16.499883190449264 4.463909395478234
H -0.09283146091226246 -15.731988444820027 5.711196255933756
O -5.6135378668023606 3.1066157945987105 10.007907327343894
H -5.188491360348857 2.596780664150106 9.301953388327949
H -5.944721728814913 3.898355535588022 9.557988027490431
O -2.343017204517901 -16.332861484944857 -1.2683417952517604
H -2.0073138740833323 -16.468221207942953 -0.36948230888861433
H -1.8606564313595464 -16.984579525038328 -1.7989580643528846
O 0.6682441304976816 -16.281606003817785 -8.9111967323032
H 1.2396315120691366 -16.380360308912934 -9.687554513423535
H -0.21571897669959306 -16.50151127854619 -9.241670391708551
O -4.1479987933234685 -13.505600205770428 13.541244671094997
H -3.948696718947687 -12.78921690848076 14.162566658001865
H -3.893328103372288 -13.144935794930351 12.678675272882208
O -16.013311400241527 4.8566235628760985 1.3476091362319709
H -15.441759973794646 5.1492135254100315 2.07334148197035
H -15.422277235274553 4.343189752416453 0.7766220239267255
O 0.6159052670354628 -2.8852137545004504 -5.7293624231837965
H 0.3044305341224012 -3.2556633360801763 -4.889887614053621
H 1.1953385014631959 -3.573890622233914 -6.088449102120011
O 7.687882117244182 13.161561409557365 4.8362700466149775
H 8.119567520604305 12.84810366598401 5.645194834478293
H 7.789696296424333 12.424224163155166 4.215843095003512
O -3.4384812121006685 4.088464211596449 11.668357731967689
H -4.188353795187261 3.4748941446763957 11.682150447971695
H -3.3239056770761066 4.296965024188033 10.729016578699888
O 11.324014279321638 -11.498465490768842 4.348025234819698
H 11.557096216302623 -11.926359527055887 3.510441292003713
H 10.829407430439515 -12.17901296038669 4.8288382451840635
O -5.573440713292515 -11.688494486665684 -10.866080559884988
H -5.28881144556208 -11.571676448930726 -9.947218718849575
H -4.744288628009136 -11.709194449911132 -11.367119755249844
O 8.347940363161989 -3.9439217806961646 -12.125381540285062
H 8.570494050467097 -3.7513421995217957 -11.20215333551573
H 8.099384321092122 -3.081650939619505 -12.490991762898586
O -0.5245893264627126 16.35946498990102 -2.221348561739475
H 0.18326262226106405 16.53468374915952 -1.5832174137833004
H -1.3037364280371255 16.780462140188778 -1.8280889301247152
O 1.0114967182524128 -3.805913107896015 13.653478602689049
H 0.4975026226600149 -3.414537514352611 12.931258019089618
H 0.7990313411592009 -4.750191320056707 13.607012853203589