194

C -5.0710522388059704 1.0783507462686561 0.47044029850746183
C -3.8153522388059704 0.1782507462686569 0.19534029850746193
C -4.11845223880597 -1.3219492537313435 0.5608402985074619
C -2.96945223880597 -2.3874492537313436 0.7034402985074619
C -2.52015223880597 0.7359507462686565 0.7384402985074618
C -2.20305223880597 0.7852507462686571 2.097440298507462
C -1.5755522388059702 1.205650746268656 -0.18965970149253808
C -0.9533522388059701 1.2695507462686564 2.508640298507462
H -2.91125223880597 0.4298507462686567 2.840840298507462
C -0.32655223880597006 1.6562507462686575 0.21554029850746192
H -1.7850522388059702 1.178550746268657 -1.2573597014925382
C 0.004447761194029898 1.6956507462686563 1.569740298507462
H -0.7158522388059702 1.2676507462686573 3.5705402985074617
H 0.3943477611940298 1.9193507462686572 -0.5551597014925382
C -1.76045223880597 -2.1592492537313435 -0.1734597014925381
C -0.5287522388059701 -1.936549253731343 0.464840298507462
C -1.8068522388059702 -2.121249253731343 -1.5681597014925381
C 0.6114477611940299 -1.614449253731343 -0.2582597014925381
H -0.4544522388059702 -1.954049253731343 1.5506402985074619
C -0.6479522388059701 -1.8270492537313432 -2.2998597014925384
H -2.74345223880597 -2.290549253731343 -2.092259701492538
C 0.5698477611940298 -1.5506492537313434 -1.6506597014925382
H 1.5072477611940298 -1.351949253731343 0.2991402985074618
H -0.7173522388059701 -1.7640492537313435 -3.3840597014925375
C 1.7791477611940298 -1.082849253731343 -2.4255597014925376
H 1.4739477611940297 -0.9102492537313429 -3.464259701492538
H 2.1252477611940295 -0.1337492537313434 -2.0010597014925384
C 1.3965477611940298 2.0964507462686566 1.997440298507462
H 1.51704776119403 1.8448507462686567 3.057640298507462
H 2.1256477611940294 1.5207507462686571 1.4165402985074618
C 3.94864776119403 -1.4275492537313434 -3.522959701492538
H 4.81734776119403 -2.087049253731343 -3.615159701492538
H 3.4305477611940303 -1.3641492537313429 -4.484459701492538
H 4.26984776119403 -0.441449253731343 -3.176459701492538
C 2.60904776119403 -3.4296492537313434 -2.8992597014925376
H 1.9825477611940296 -3.869549253731343 -2.119359701492538
H 2.06294776119403 -3.373349253731343 -3.845759701492538
H 3.5215477611940305 -4.019849253731343 -3.0234597014925377
C 3.7281477611940304 -2.060049253731343 -1.156659701492538
H 3.9048477611940298 -1.032549253731343 -0.8295597014925382
H 3.12924776119403 -2.623249253731343 -0.4404597014925382
H 4.68244776119403 -2.5769492537313434 -1.3005597014925383
C 3.1110477611940297 3.755250746268656 2.588740298507462
H 3.40124776119403 4.809350746268656 2.534540298507462
H 2.9823477611940303 3.461750746268656 3.634840298507462
H 3.86514776119403 3.1392507462686563 2.091540298507462
C 1.99744776119403 3.9574507462686572 0.40494029850746194
H 2.67914776119403 3.230350746268657 -0.04295970149253803
H 1.03214776119403 3.981150746268657 -0.10175970149253821
H 2.4399477611940297 4.958250746268657 0.368240298507462
C 0.7418477611940297 4.4992507462686575 2.475440298507462
H -0.18475223880597014 4.424250746268656 1.901240298507462
H 0.57844776119403 4.189650746268656 3.511940298507462
H 1.1210477611940297 5.524350746268658 2.4432402985074617
N 3.00114776119403 -2.025349253731343 -2.490159701492538
N 1.7831477611940298 3.586450746268657 1.862540298507462
C -3.55075223880597 -3.8435492537313434 0.6444402985074619
H -2.62515223880597 -2.2736492537313433 1.7424402985074618
H -4.67195223880597 -1.3478492537313436 1.5102402985074619
H -4.83415223880597 -1.6757492537313432 -0.1945597014925382
H -3.7169522388059697 0.17335074626865676 -0.900559701492538
H -3.9132522388059705 -4.043149253731343 -0.34225970149253815
H -4.35435223880597 -3.9354492537313432 1.3449402985074619
H -2.78115223880597 -4.545049253731343 0.8904402985074619
H -5.24235223880597 1.138950746268657 1.5249402985074618
H -5.92805223880597 0.6501507462686567 -0.006059701492538094
H -4.89895223880597 2.059650746268657 0.08004029850746197
C -0.03334964552796282 -4.570213102954669 1.2157825349978788
O -0.3751713280590129 -5.2888357685114675 2.142343326581293
O 1.1213466020408709 -4.182931265683972 1.0028956672237297
O -0.7892421616151682 -4.119048450816975 0.34760896641563477
O -2.8018833399212584 7.985981437029572 5.9449986027642225
H -3.1209456452102984 7.137667584721552 5.602171809432706
H -2.560257385467956 7.791466992909911 6.863008936836421
O 0.26353107479806326 6.8830947854887885 -4.522738369974244
H 0.5295542690533441 7.027964330226684 -3.6022972626644636
H 1.1023028278739853 6.76116988568346 -4.992374622141175
O 2.2458139603449245 0.7020918179207385 -6.942675628654012
H 1.3308083392476469 0.38393492611431634 -6.9201309517553895
H 2.644890958062792 0.32376463124130717 -6.144823490716337
O 1.9390840920600327 1.8046577600989395 -3.891250193636852
H 2.697207135187448 1.2109596533463103 -3.782901836853874
H 1.9354149656961628 2.0091330529760274 -4.838424061738456
O 6.6373050620821425 -9.838344928962432 -0.20570704475635937
H 6.470837319929515 -10.718339589431134 0.16424598641001031
H 6.962589256883319 -9.324884785405272 0.5489523604661621
O -0.29732568303155205 -6.980204778462257 5.337881930652544
H -0.705050224839322 -6.693685654585889 6.168926361811772
H 0.5701400411155382 -6.548405456587915 5.341690783343558
O 3.003070399845269 -1.2779321182740844 1.7377674829028371
H 3.157887428615821 -0.9820241493304175 2.6474034092042853
H 3.1782746241076696 -0.489636283841389 1.2021789267175216
O 6.001378327711716 -6.633560462233242 -4.370879992809889
H 6.150236824940952 -6.941442132463703 -3.4642282504971327
H 6.849374311985274 -6.240696079772562 -4.626853296007134
O 0.507935346559887 -5.788716064991083 -8.744229687014958
H 0.3086993915760502 -5.714878394542284 -9.689650434388513
H 0.0684053189141291 -6.609525354165468 -8.475813201115232
O -6.065772301112192 3.49178252163463 4.229462459459611
H -6.461912413118764 3.2896126658299387 3.3685514780199894
H -6.666842525916817 3.0776032312960138 4.866747360118582
O 1.8595608939237636 -4.842872583383391 -6.387581955603183
H 1.2629836571118678 -4.463266606728078 -5.725039685324938
H 2.724092701094982 -4.463968108597518 -6.16854292329043
O 9.275167100363202 -5.0832984250676185 0.2865260872758384
H 9.978378681352392 -5.053452912711366 -0.37948447919805517
H 8.535853337923081 -4.617854086708799 -0.13268587922363473
O -7.267217002953174 2.01882965418792 -5.851759451310706
H -7.2560143471832514 2.4106694988630153 -4.965585995643759
H -6.357486825180935 1.712308791698952 -5.983660584018148
O 0.21832300046351572 5.1884240782008995 6.115452188420591
H 0.6971748201673691 5.557515068197868 6.872710488321865
H -0.5572384540436137 4.764731188610718 6.5128823205111335
O 4.840521328468143 -8.1726869006105 2.234497760842988
H 5.204162671907927 -8.393701192150745 3.1050636763119273
H 3.8897710101620664 -8.333500578211792 2.3302826116140833
O 8.349507241658184 -2.360732556062514 -0.728740079558702
H 8.588055776712338 -1.753168220074301 -1.4449296710487758
H 9.153879694192657 -2.4163065908037193 -0.19128456645435588
O 3.4371585667478772 0.6488430284964317 -10.710922238290893
H 4.264361986775607 0.9139880029140999 -11.140340450917561
H 3.4609783282739053 -0.31956977663112407 -10.734822073558561
O -3.084467959940013 -0.22546126296802083 7.095940818969353
H -2.5099434409218153 -0.8824037156680529 7.517029346226243
H -2.769761385015072 -0.19204866635299878 6.180077666316921
O -3.1791120907587604 -4.451009254822061 -6.388504343312622
H -3.875636751797372 -4.246057370079608 -5.746775834980972
H -3.5052834648965066 -5.242032365769775 -6.843319269342646
O -0.5723270128067802 4.277035490909319 -7.070428135308228
H -0.9915610357579839 3.769180705732004 -6.359587992890361
H -0.8371719039955857 5.19191478416531 -6.8920605186212045
C 19.214375313499744 -14.662203947422062 -4.22226914302872
O 20.317654175025638 -14.667841550709879 -3.757982347567891
O 18.111096451973843 -14.656566344134246 -4.686555938489549
O 3.6748875179265346 14.803599650358116 -6.226021517722955
H 3.718888265912046 14.734501748567773 -5.260487069324096
H 2.830175004194362 15.24896694269681 -6.390553242199334
O -12.80218477813525 0.34896833192415855 8.714994979522782
H -12.399111585069221 0.8812232485284164 9.417279865934379
H -12.422490970458346 0.7105348188655536 7.900093616023693
O 7.14333973239753 -4.009698533291818 -11.868482349889813
H 7.751628877020826 -4.758702816773308 -11.957612910080133
H 6.2644590791271435 -4.415040134374954 -11.915693874313167
O -6.976484521915351 4.356218495299738 14.562839316332802
H -7.870046675400267 4.123618710045726 14.856797433518205
H -7.089449346483798 5.214138573469144 14.126749839064637
O 6.744625685901987 13.860392513274915 5.74756834539631
H 7.007227392344269 14.779681245640074 5.589720547755473
H 6.216682860426662 13.903808470922053 6.5589581234627525
O 20.66998959134441 -1.6969087304543482 8.852521817964226
H 21.057489856467733 -1.468114375014526 7.994346984758174
H 20.803399853070204 -2.6541753689174037 8.92183436554325
O 6.6065461019884 2.742860910597852 10.024863795120973
H 7.1445128571050205 1.9552774179460326 10.195952571467224
H 6.014605924333187 2.47068701906827 9.307584112467715
O 5.235287817680426 16.060582153962173 -1.8531056342951846
H 4.887504179994393 16.7935245695813 -2.3830200742232392
H 5.569460366125466 16.489573235308487 -1.0510724028820047
O 16.109611273362617 5.25321045133798 -3.3781271031563147
H 16.47493825564799 4.408341217025276 -3.6809464054243985
H 15.550275524687772 5.5436139955880055 -4.11417821961588
O -13.170744009415554 10.973519141624436 1.2486918635746176
H -13.27743111217146 10.98419665362362 0.2856387966343481
H -13.265055595995808 10.03833589674111 1.48427532527388
O -6.6579921208215085 7.5809873667413825 -16.244770736487194
H -7.190407424310023 7.384385852184455 -15.45937329188659
H -6.895690157150694 6.8800130825235595 -16.870147935216536
O 3.674822268003287 13.944061477960762 -17.485669245053664
H 4.038955762196933 13.536517793552377 -18.285845663479734
H 4.443765941103155 14.35238014681331 -17.060271270721202
O 9.444006921109468 0.6603636558391727 -13.604483743704781
H 8.882329576349647 1.2206524433546664 -13.048100429911157
H 10.245139282279144 1.1893563722108826 -13.736072459833386
O 10.106464241884227 4.487410398454203 -2.854025214792553
H 9.237104222782042 4.264997933753061 -2.4883570460490683
H 10.006267710198706 5.402780869875157 -3.155719595563511
O -6.494696683367146 6.000218335193933 3.2649226235405315
H -5.9173948844897994 5.451113381037813 2.7134031413513826
H -7.0142575873667266 6.509707181109168 2.6250480051791674
O 14.878120674468814 13.385820191519318 2.021252370743225
H 15.769825034162222 13.22692141744709 1.6768951849577194
H 14.416095246288041 13.814918756519575 1.2854746396796282
O -6.970634087260407 8.86725055843704 0.3476100862542917
H -6.923333292381924 9.115580906670829 1.2830575887096405
H -6.6245863427321 7.962361903742427 0.327876221659515
O -12.761952435590477 -7.025659161823665 -3.071693592073801
H -12.356204525766426 -6.846117125880171 -3.933146230297564
H -12.207011788647758 -6.537236372857074 -2.445238484433284
O -5.9808262341585845 11.574086188581838 -5.787164355081343
H -6.454153962423403 11.4729055234951 -6.6266229255708415
H -5.05681276480606 11.695338748767746 -6.052605251334116
O 3.7558132601624186 -13.610631195545276 9.850067175588993
H 3.5478949950127125 -13.54549987531111 8.905876907135811
H 2.8877658612771047 -13.623992170537033 10.280505489329432