194

C -5.0710522388059704 1.0783507462686561 0.47044029850746183
C -3.8153522388059704 0.1782507462686569 0.19534029850746193
C -4.11845223880597 -1.3219492537313435 0.5608402985074619
C -2.96945223880597 -2.3874492537313436 0.7034402985074619
C -2.52015223880597 0.7359507462686565 0.7384402985074618
C -2.20305223880597 0.7852507462686571 2.097440298507462
C -1.5755522388059702 1.205650746268656 -0.18965970149253808
C -0.9533522388059701 1.2695507462686564 2.508640298507462
H -2.91125223880597 0.4298507462686567 2.840840298507462
C -0.32655223880597006 1.6562507462686575 0.21554029850746192
H -1.7850522388059702 1.178550746268657 -1.2573597014925382
C 0.004447761194029898 1.6956507462686563 1.569740298507462
H -0.7158522388059702 1.2676507462686573 3.5705402985074617
H 0.3943477611940298 1.9193507462686572 -0.5551597014925382
C -1.76045223880597 -2.1592492537313435 -0.1734597014925381
C -0.5287522388059701 -1.936549253731343 0.464840298507462
C -1.8068522388059702 -2.121249253731343 -1.5681597014925381
C 0.6114477611940299 -1.614449253731343 -0.2582597014925381
H -0.4544522388059702 -1.954049253731343 1.5506402985074619
C -0.6479522388059701 -1.8270492537313432 -2.2998597014925384
H -2.74345223880597 -2.290549253731343 -2.092259701492538
C 0.5698477611940298 -1.5506492537313434 -1.6506597014925382
H 1.5072477611940298 -1.351949253731343 0.2991402985074618
H -0.7173522388059701 -1.7640492537313435 -3.3840597014925375
C 1.7791477611940298 -1.082849253731343 -2.4255597014925376
H 1.4739477611940297 -0.9102492537313429 -3.464259701492538
H 2.1252477611940295 -0.1337492537313434 -2.0010597014925384
C 1.3965477611940298 2.0964507462686566 1.997440298507462
H 1.51704776119403 1.8448507462686567 3.057640298507462
H 2.1256477611940294 1.5207507462686571 1.4165402985074618
C 3.94864776119403 -1.4275492537313434 -3.522959701492538
H 4.81734776119403 -2.087049253731343 -3.615159701492538
H 3.4305477611940303 -1.3641492537313429 -4.484459701492538
H 4.26984776119403 -0.441449253731343 -3.176459701492538
C 2.60904776119403 -3.4296492537313434 -2.8992597014925376
H 1.9825477611940296 -3.869549253731343 -2.119359701492538
H 2.06294776119403 -3.373349253731343 -3.845759701492538
H 3.5215477611940305 -4.019849253731343 -3.0234597014925377
C 3.7281477611940304 -2.060049253731343 -1.156659701492538
H 3.9048477611940298 -1.032549253731343 -0.8295597014925382
H 3.12924776119403 -2.623249253731343 -0.4404597014925382
H 4.68244776119403 -2.5769492537313434 -1.3005597014925383
C 3.1110477611940297 3.755250746268656 2.588740298507462
H 3.40124776119403 4.809350746268656 2.534540298507462
H 2.9823477611940303 3.461750746268656 3.634840298507462
H 3.86514776119403 3.1392507462686563 2.091540298507462
C 1.99744776119403 3.9574507462686572 0.40494029850746194
H 2.67914776119403 3.230350746268657 -0.04295970149253803
H 1.03214776119403 3.981150746268657 -0.10175970149253821
H 2.4399477611940297 4.958250746268657 0.368240298507462
C 0.7418477611940297 4.4992507462686575 2.475440298507462
H -0.18475223880597014 4.424250746268656 1.901240298507462
H 0.57844776119403 4.189650746268656 3.511940298507462
H 1.1210477611940297 5.524350746268658 2.4432402985074617
N 3.00114776119403 -2.025349253731343 -2.490159701492538
N 1.7831477611940298 3.586450746268657 1.862540298507462
C -3.55075223880597 -3.8435492537313434 0.6444402985074619
H -2.62515223880597 -2.2736492537313433 1.7424402985074618
H -4.67195223880597 -1.3478492537313436 1.5102402985074619
H -4.83415223880597 -1.6757492537313432 -0.1945597014925382
H -3.7169522388059697 0.17335074626865676 -0.900559701492538
H -3.9132522388059705 -4.043149253731343 -0.34225970149253815
H -4.35435223880597 -3.9354492537313432 1.3449402985074619
H -2.78115223880597 -4.545049253731343 0.8904402985074619
H -5.24235223880597 1.138950746268657 1.5249402985074618
H -5.92805223880597 0.6501507462686567 -0.006059701492538094
H -4.89895223880597 2.059650746268657 0.08004029850746197
C 1.4408907689383483 2.229573454651902 -3.2680197643192264
O 1.8719625777690658 2.169557734766984 -2.1268139513310045
O 2.0266892364826536 1.8126001705142556 -4.273805477002703
O 0.35213168748035173 2.716575843475355 -3.5937201177470195
O -2.3043586008837833 4.406464335156648 0.3937448219805897
H -2.007700506620081 5.247551775735758 0.014886999957722746
H -3.0890716313404556 4.645847517163446 0.909383354582454
O -6.791546259836107 -4.263075459689892 -6.895727071320358
H -5.85224013441041 -4.098748928614078 -6.723482620546592
H -7.222710236709812 -4.064057760298403 -6.051066473994208
O 4.2650243618442545 0.21778106121977236 2.84453336868459
H 4.497910731050466 0.6277447653181345 3.6910917289054908
H 3.301220559518832 0.3068663167587926 2.7986204928369354
O -1.0601343532577066 8.529067257334312 -5.64473427389531
H -0.12481521567398368 8.69970387016303 -5.83189360209453
H -1.2415660006056568 7.693773460821664 -6.1011647452138815
O 2.129965773092798 2.2800169701679875 -9.229871788808532
H 1.5941467258969886 2.445302007983354 -8.439589458349001
H 1.8011688959948104 1.4312761830253642 -9.562277616301268
O -2.9483918130329543 7.8795435136752685 -3.1601800396363577
H -3.6869129892095454 8.417844029767682 -2.838021098097579
H -2.407780787259697 7.727324103649842 -2.370540302589204
O 1.7346504722248879 -1.5477849248413968 -11.211826243552895
H 1.2254670642559375 -1.9897413886810469 -11.907796140904411
H 2.414502942006112 -2.1953265727830336 -10.972133987079312
O 2.720456536636842 -7.725634272166952 -7.320652712814187
H 2.6642244032014903 -7.85271203686159 -8.279639962880383
H 2.7323874989425385 -8.62708448831476 -6.96539632054864
O -7.845126827344634 5.579846391413977 -3.591005076727086
H -7.254384590448582 5.042352983125108 -4.139723403824937
H -8.592545978970456 5.776919717273027 -4.175375387675367
O -6.907415867641962 0.8291566860603758 -9.361395731302776
H -5.9885671812249015 0.5772043167452938 -9.184747912278144
H -6.9962364051550745 1.6986951862059425 -8.943094819063178
O 11.103074513444954 -1.3066641251295883 -1.1633013494502942
H 10.47388797024347 -1.7544704109633875 -0.5780140856883804
H 11.27915266289483 -0.4646295667526188 -0.7172786683171379
O -6.056872721231922 7.856882250739864 -6.293418701584213
H -5.488171671555751 8.487673840958035 -6.759946774380752
H -5.895968099107492 7.016249921662964 -6.747741201786149
O 7.420235431703984 -5.285450669295337 -0.2263526242570082
H 7.673437834435472 -5.777629318394341 -1.0217242842513041
H 6.915747272775185 -5.92744513044397 0.295467990183536
O 6.178972676852976 0.9248511246275068 -7.630538548444054
H 5.661252396648664 0.12921633340525984 -7.435863569666863
H 5.6867438882854655 1.6368009329367879 -7.1948778611497595
O -3.756384543323615 0.4593505060902645 -7.079931056058751
H -4.570920826584267 0.9524181459468091 -7.259881890116894
H -3.070420439831023 1.1431448074702888 -7.050938877461595
O -8.942224039555766 -6.138919394825137 -5.463585151425312
H -8.947970384369412 -5.673085066961363 -4.613918913773732
H -8.035221440785195 -6.02700625339909 -5.785739895142646
O -2.1400590614083876 -6.289287465647773 4.437071316920743
H -2.540586975486513 -6.915086813768884 5.0591001931278035
H -2.5560323518100883 -6.503957384064222 3.5886345236948376
O -8.097160158506659 2.8603359275079483 1.580784794317085
H -7.1902391692536565 3.0934068875240603 1.8300629597257805
H -8.056389672041202 1.906609745069372 1.4143333579624877
O 1.4664796093891623 -5.224508428998203 2.794839419456924
H 1.2341328086472039 -5.140691365969222 3.7318330272420432
H 0.9001363715939709 -5.943524284296125 2.476667325875706
O 8.846953443848639 -0.08061015590204527 -3.2460480970637584
H 8.388624543008596 0.7398046671840944 -3.009782370359066
H 9.619120211583944 -0.09423088304822767 -2.660783282729919
C 1.370461189933247 -2.260889462595946 10.770803821665742
O 1.6880938114749833 -2.687888572038431 11.842997617379863
O 1.0528285683915113 -1.833890353153462 9.698610025951625
O 11.330291369595168 -1.1531948002465278 12.446837511970903
H 10.669953415070879 -0.6821709879796947 12.976986275048116
H 11.91005876167118 -1.5636818180331558 13.105876299610918
O -2.819685503973007 5.9133683600105655 -22.426938410034662
H -2.68330696996491 5.009582833490639 -22.105162129965883
H -3.769425093574986 6.063674647708306 -22.30708568323552
O -2.1200665333338025 -14.726736297235828 6.422592992130145
H -1.4051260778672727 -14.6132649629773 7.066760484587583
H -1.7474105319913216 -15.331361300438294 5.763413157437178
O -3.7828255663651014 2.9360209784969955 5.878985431029565
H -3.1283694825367245 2.5053337110197433 5.308754715552922
H -4.197798715819642 3.595204489732503 5.302585979219446
O -2.5342311115569487 6.361533451561574 8.821784568207143
H -3.3228701814239936 5.829164924166959 9.005086301474812
H -2.173651892531821 5.973953833925851 8.010164822821057
O 4.630310075815433 -11.84340276535021 1.831350418718797
H 4.07295063570168 -11.542221302033372 1.0981331674416497
H 4.768480888586502 -11.045426983200663 2.3634269375588985
O -4.19405695313228 -7.286693315038071 -10.858656375895379
H -3.46517592003906 -7.38575376333348 -10.22787366839582
H -4.02894227310555 -6.42692586165078 -11.273986380633302
O 13.430265564736317 10.44708671724073 -4.403666366383975
H 14.017264501662133 11.081351652662477 -3.9653655602674363
H 12.875293748620157 10.9983357965321 -4.9755865358107485
O -9.982610566683508 -5.126732105974298 7.559812321578418
H -10.210900439548261 -4.65552952617034 8.375176792004675
H -9.438936298441766 -4.493258499878057 7.067784451705958
O 5.329018003774723 9.017744767382492 -13.122589349760016
H 4.639509140285792 8.922111154030084 -12.44849803838791
H 5.227432191412932 9.929853775733402 -13.43355465958076
O 0.10931802787117206 -20.40087430724155 -10.653454614297265
H -0.035846134261337426 -20.151894354772345 -9.728303974562955
H -0.010742771348665414 -21.362393971867064 -10.658677958928392
O 5.067300679890036 -14.388338989933356 13.530067864340543
H 4.244231214923229 -14.898776385369668 13.561335708517069
H 5.711084079283523 -14.954424329921016 13.981789312598673
O 5.682731279558895 5.153701216599872 -7.678686549424824
H 5.760846873081071 6.119545589528487 -7.675530882964314
H 4.733071522173663 4.996045975543662 -7.789380336380237
O -6.635710811890038 -15.946174420156012 11.449809090092824
H -6.649048455609815 -15.950127590549016 12.418712509739926
H -7.036380757339485 -16.79431845154908 11.206750987726638
O -12.684868308874108 -10.337175247891413 -7.327083687539917
H -12.653752126494364 -9.677907273625827 -6.617601567820285
H -11.764991986833707 -10.628362721049243 -7.416522783719277
O -5.230131698382907 -7.756775699343078 16.868631182887825
H -4.800710330326984 -8.00556595326959 17.700898000145465
H -4.528200966686271 -7.317657528506279 16.36521244640619
O 15.025730467227104 -4.772552521233832 1.0659789749109239
H 14.835718285155762 -4.800235854896498 2.0157665093636608
H 14.252090818920177 -5.1918153567536836 0.6601929307701908
O 13.94205133951908 0.6291308066121415 3.1443659176952474
H 14.167586955265413 0.6667196307588763 4.086007103725887
H 13.239244391153091 -0.03638546015006172 3.0984046698511567
O 8.531541004604176 -1.264616847872631 -11.813290134342143
H 7.897950997326863 -1.2481160591878142 -12.546269522559243
H 8.288942053713814 -0.4949913486958417 -11.276834838586964
O 3.540256286919366 6.3660256880397865 -10.636756108519327
H 3.9712342561624556 6.184810098499961 -9.788000397472363
H 4.22301201849725 6.163574440603373 -11.29388626892059