194

C -5.0710522388059704 1.0783507462686561 0.47044029850746183
C -3.8153522388059704 0.1782507462686569 0.19534029850746193
C -4.11845223880597 -1.3219492537313435 0.5608402985074619
C -2.96945223880597 -2.3874492537313436 0.7034402985074619
C -2.52015223880597 0.7359507462686565 0.7384402985074618
C -2.20305223880597 0.7852507462686571 2.097440298507462
C -1.5755522388059702 1.205650746268656 -0.18965970149253808
C -0.9533522388059701 1.2695507462686564 2.508640298507462
H -2.91125223880597 0.4298507462686567 2.840840298507462
C -0.32655223880597006 1.6562507462686575 0.21554029850746192
H -1.7850522388059702 1.178550746268657 -1.2573597014925382
C 0.004447761194029898 1.6956507462686563 1.569740298507462
H -0.7158522388059702 1.2676507462686573 3.5705402985074617
H 0.3943477611940298 1.9193507462686572 -0.5551597014925382
C -1.76045223880597 -2.1592492537313435 -0.1734597014925381
C -0.5287522388059701 -1.936549253731343 0.464840298507462
C -1.8068522388059702 -2.121249253731343 -1.5681597014925381
C 0.6114477611940299 -1.614449253731343 -0.2582597014925381
H -0.4544522388059702 -1.954049253731343 1.5506402985074619
C -0.6479522388059701 -1.8270492537313432 -2.2998597014925384
H -2.74345223880597 -2.290549253731343 -2.092259701492538
C 0.5698477611940298 -1.5506492537313434 -1.6506597014925382
H 1.5072477611940298 -1.351949253731343 0.2991402985074618
H -0.7173522388059701 -1.7640492537313435 -3.3840597014925375
C 1.7791477611940298 -1.082849253731343 -2.4255597014925376
H 1.4739477611940297 -0.9102492537313429 -3.464259701492538
H 2.1252477611940295 -0.1337492537313434 -2.0010597014925384
C 1.3965477611940298 2.0964507462686566 1.997440298507462
H 1.51704776119403 1.8448507462686567 3.057640298507462
H 2.1256477611940294 1.5207507462686571 1.4165402985074618
C 3.94864776119403 -1.4275492537313434 -3.522959701492538
H 4.81734776119403 -2.087049253731343 -3.615159701492538
H 3.4305477611940303 -1.3641492537313429 -4.484459701492538
H 4.26984776119403 -0.441449253731343 -3.176459701492538
C 2.60904776119403 -3.4296492537313434 -2.8992597014925376
H 1.9825477611940296 -3.869549253731343 -2.119359701492538
H 2.06294776119403 -3.373349253731343 -3.845759701492538
H 3.5215477611940305 -4.019849253731343 -3.0234597014925377
C 3.7281477611940304 -2.060049253731343 -1.156659701492538
H 3.9048477611940298 -1.032549253731343 -0.8295597014925382
H 3.12924776119403 -2.623249253731343 -0.4404597014925382
H 4.68244776119403 -2.5769492537313434 -1.3005597014925383
C 3.1110477611940297 3.755250746268656 2.588740298507462
H 3.40124776119403 4.809350746268656 2.534540298507462
H 2.9823477611940303 3.461750746268656 3.634840298507462
H 3.86514776119403 3.1392507462686563 2.091540298507462
C 1.99744776119403 3.9574507462686572 0.40494029850746194
H 2.67914776119403 3.230350746268657 -0.04295970149253803
H 1.03214776119403 3.981150746268657 -0.10175970149253821
H 2.4399477611940297 4.958250746268657 0.368240298507462
C 0.7418477611940297 4.4992507462686575 2.475440298507462
H -0.18475223880597014 4.424250746268656 1.901240298507462
H 0.57844776119403 4.189650746268656 3.511940298507462
H 1.1210477611940297 5.524350746268658 2.4432402985074617
N 3.00114776119403 -2.025349253731343 -2.490159701492538
N 1.7831477611940298 3.586450746268657 1.862540298507462
C -3.55075223880597 -3.8435492537313434 0.6444402985074619
H -2.62515223880597 -2.2736492537313433 1.7424402985074618
H -4.67195223880597 -1.3478492537313436 1.5102402985074619
H -4.83415223880597 -1.6757492537313432 -0.1945597014925382
H -3.7169522388059697 0.17335074626865676 -0.900559701492538
H -3.9132522388059705 -4.043149253731343 -0.34225970149253815
H -4.35435223880597 -3.9354492537313432 1.3449402985074619
H -2.78115223880597 -4.545049253731343 0.8904402985074619
H -5.24235223880597 1.138950746268657 1.5249402985074618
H -5.92805223880597 0.6501507462686567 -0.006059701492538094
H -4.89895223880597 2.059650746268657 0.08004029850746197
C 1.9056390990454342 -2.1908115927255105 3.2856249583679
O 1.2562953277214315 -2.5606432014026304 4.251726788645648
O 2.629358581499744 -2.9160684465755846 2.593624907241053
O 1.939530336866444 -1.0340440798405 2.85043685015171
O 3.069625686314513 2.5356639221611603 5.649481224243474
H 3.2569670609934516 3.4288358964168966 5.97523326282116
H 2.310470288242743 2.248011487917072 6.178538029276679
O 5.026577008813169 -5.404270538832641 6.852843327229522
H 5.428024585489338 -5.485257049106763 5.974635843069627
H 4.188508917658332 -4.947407594111268 6.685870070003696
O 9.168352355388679 6.4806414676605355 0.9421355555626474
H 9.713715520119203 6.749483899783188 0.18763564029062785
H 9.537857717942297 6.97811987568817 1.687080496407546
O 5.345781607549368 2.8559448658446156 -7.221229078969436
H 5.525895141223096 2.8605657795729176 -6.269123455078957
H 5.332098691139773 3.794608100402961 -7.4614082916148945
O 6.17763183006063 3.4365752917840204 4.916209927654205
H 6.276750589648763 3.1423445725460097 3.998293203623973
H 6.4000327225810985 4.379197004527295 4.885160064996993
O -1.4680791966235551 -1.0426130679613692 6.6771630412624905
H -2.4144842912823754 -1.2268277751854382 6.580469218573651
H -1.1301749064174533 -1.8058013118351548 7.169429574121629
O 12.391525586207205 0.12197888011100844 1.849839528848432
H 11.787244702811966 -0.6015018740897267 1.6253677730210931
H 12.659599847031465 0.47846492941162566 0.9895978002409644
O 10.308187596708915 3.807313464102238 0.1533975459387653
H 10.474292698205016 4.225460564470616 -0.7048153965239372
H 9.431465972040066 3.4070241107373613 0.05295069073295666
O -3.0325443397270178 -11.009538326284146 -3.1055539741428686
H -3.6926532434715877 -11.588815735096157 -2.6960893532814505
H -3.0184801744721024 -10.22862979012282 -2.5320158309422096
O -7.140088641690344 -0.47450920960109544 -4.5787400030415295
H -6.45723863714106 0.0802884966311932 -4.17268245373794
H -6.829414419978227 -0.6002526150686728 -5.487933089379622
O -3.71796167358092 -5.028025747246094 3.761305123064532
H -3.1373883361192667 -4.906647506006907 4.52757484012395
H -4.265227052836738 -5.790978364936924 4.0008168182418125
O 0.9978869727361718 -3.848465500164704 7.332886632629512
H 1.9370569353317455 -3.9866828562712375 7.527368253172817
H 0.6666535532734669 -3.3689520880227635 8.107039882126688
O -10.133407185859149 0.18023453868023775 -5.5631968447367885
H -9.403805845164207 -0.19478502545884346 -6.0789579978581525
H -10.92210944419546 -0.03273310409710106 -6.084306694120837
O -6.057154000566543 -5.974100488707543 -3.780944359225104
H -6.130226402462822 -5.872029090334187 -2.8201065942433057
H -6.976773172855234 -6.032185805354937 -4.08075866550323
O -4.410593653999367 4.737197519562161 0.9450686553186098
H -4.716799891572757 5.055223556682447 1.8076604108349243
H -3.68226007759439 5.335436998519061 0.7201205021843577
O -3.5526002866560074 -4.835749212050433 -6.066414557055074
H -3.450884705451226 -5.15215440026075 -6.976639284423962
H -4.407580094887603 -4.379736485125597 -6.071299707906157
O -6.085109372928314 7.245189939822131 4.128338423471516
H -6.027331857199266 7.086255000729277 3.174205937539017
H -5.245582924636496 6.90593447701214 4.473393517437834
O -6.968630099071238 -1.7335282652074175 12.30382375981913
H -6.175093370043199 -2.197915555279742 11.997864185033892
H -7.312351161112188 -1.3061575176747544 11.504967064308094
O -2.671102675705261 6.347848541685082 -2.718899447260091
H -3.4465706254066237 5.8177495967808905 -2.4809668423119
H -2.8693235091311973 6.664334919418931 -3.613050898751858
O -0.43954206043105337 -10.93570327960893 1.5152914045732722
H -0.4236088791847398 -10.108850888513995 2.020294982754615
H -0.7685458002989337 -10.670990930575615 0.6431412708679503
C -8.797373779352231 12.645044437906481 -13.881969087623563
O -9.805453934587675 13.287244009990886 -13.817375221544085
O -7.789293624116789 12.00284486582208 -13.946562953703042
O -1.4036193319608574 -2.7670450090654874 10.869400758033043
H -1.2956433119260553 -2.597404525725965 9.921492195770956
H -0.7288547624331314 -2.2096439304631224 11.285283863704555
O 9.549036000473157 4.050411499580767 -4.2361408887149405
H 9.811029335792405 4.799888665328905 -3.6806133671910874
H 10.208172515297296 4.043836423184734 -4.946392792968548
O 8.45370161554746 1.3244408062237794 -3.5157062395405028
H 8.82644313899828 1.5386330071841066 -2.6472865169159343
H 7.539934969654071 1.6426067133664013 -3.4631427856504007
O -6.03666308915701 10.614848007767026 -2.555523169527425
H -6.338656401485191 11.481494200160808 -2.2445701611508952
H -6.249897745782347 10.016334657571289 -1.8238984739687334
O 7.841847940028227 4.180509484872758 -2.98387323496521
H 7.648824890593302 4.3648284601864935 -2.0523497652522145
H 7.015295165945284 3.8068526607137247 -3.324685549465693
O -15.353486375352658 8.302855469134734 -9.199756083568966
H -15.661298802602351 8.004755726735189 -10.068867934893051
H -15.87725316105685 9.099488803771864 -9.02653475509577
O 18.40041910688824 11.914053102123532 5.363641815093608
H 18.996985189452825 11.801378497340853 4.608406289266985
H 17.7257527019418 11.23089424949158 5.2329468710167895
O 3.2498585387902894 -6.110289914796519 -5.289612599390644
H 3.3742318851461297 -6.106545174259074 -6.250593662957746
H 3.84179507687309 -5.410912364570644 -4.974264979417697
O 1.5103062585125193 8.119203398213346 8.16789177209047
H 1.8670618499625913 7.939756963596987 7.285003454140466
H 1.848387225011613 7.390311392861744 8.709537088626632
O 12.680716316039923 -3.3669725721827835 12.750125263185932
H 12.39857343598269 -3.8969292874383177 11.98952771382847
H 12.426178472188088 -2.4626628261610186 12.512646182849773
O -10.215954561417364 -4.355210395998081 6.829951655926306
H -10.746874877242128 -4.378186743753535 6.019665865239862
H -10.089223492996998 -5.289560821452341 7.053313387318407
O 5.216814276150153 14.043234534190601 0.21484283212822852
H 5.99842445098823 14.259881731666288 -0.3153617352941227
H 5.337509167113515 13.10814239567979 0.43844377150599456
O 9.039817394680085 1.79874154611987 10.947876893310383
H 9.041500578000111 1.7414191488260713 11.915181740068842
H 9.395161885280254 0.9437349001403788 10.662121976238065
O -5.430233007037371 -7.514358446308042 -15.558326113252845
H -6.3334284348306 -7.806897898593156 -15.36435177224318
H -4.971478320095747 -8.32748894899143 -15.817796472089743
O 5.321599267895791 20.51712696281934 -0.1475372499648655
H 5.683793843488635 20.38589260064809 0.741597154102724
H 4.513742877182725 21.030822478674377 0.0022856897823038125
O -12.366387236637534 -18.13893621363968 -8.973659114375643
H -11.703955634515511 -17.523710047677962 -9.32244055614985
H -11.952963548608329 -18.50003053830917 -8.175126906404158
O 0.07688859320228048 16.316215190705282 -14.580309375254854
H 0.10933098426652776 16.234269109152127 -15.545296260077711
H 0.6873009128881513 15.632121304705336 -14.266662600342045
O -14.463495802252988 6.841487028833832 -17.294819144158552
H -13.537931996271652 6.562969088756143 -17.22606774408387
H -14.847802169162696 6.589257463873514 -16.441794638524282
O 13.076385781402236 -6.23193207862049 -2.962909990765855
H 12.97331077742324 -7.140941412934183 -3.282354713034528
H 14.034979294361204 -6.122887599964221 -2.872523471375148
O 9.465907261453161 -5.88569652969841 -13.34731636801354
H 9.276075024537693 -4.942683555053505 -13.464182138789422
H 9.330837012041439 -6.035948480061921 -12.399612657228458