194

C -5.0710522388059704 1.0783507462686561 0.47044029850746183
C -3.8153522388059704 0.1782507462686569 0.19534029850746193
C -4.11845223880597 -1.3219492537313435 0.5608402985074619
C -2.96945223880597 -2.3874492537313436 0.7034402985074619
C -2.52015223880597 0.7359507462686565 0.7384402985074618
C -2.20305223880597 0.7852507462686571 2.097440298507462
C -1.5755522388059702 1.205650746268656 -0.18965970149253808
C -0.9533522388059701 1.2695507462686564 2.508640298507462
H -2.91125223880597 0.4298507462686567 2.840840298507462
C -0.32655223880597006 1.6562507462686575 0.21554029850746192
H -1.7850522388059702 1.178550746268657 -1.2573597014925382
C 0.004447761194029898 1.6956507462686563 1.569740298507462
H -0.7158522388059702 1.2676507462686573 3.5705402985074617
H 0.3943477611940298 1.9193507462686572 -0.5551597014925382
C -1.76045223880597 -2.1592492537313435 -0.1734597014925381
C -0.5287522388059701 -1.936549253731343 0.464840298507462
C -1.8068522388059702 -2.121249253731343 -1.5681597014925381
C 0.6114477611940299 -1.614449253731343 -0.2582597014925381
H -0.4544522388059702 -1.954049253731343 1.5506402985074619
C -0.6479522388059701 -1.8270492537313432 -2.2998597014925384
H -2.74345223880597 -2.290549253731343 -2.092259701492538
C 0.5698477611940298 -1.5506492537313434 -1.6506597014925382
H 1.5072477611940298 -1.351949253731343 0.2991402985074618
H -0.7173522388059701 -1.7640492537313435 -3.3840597014925375
C 1.7791477611940298 -1.082849253731343 -2.4255597014925376
H 1.4739477611940297 -0.9102492537313429 -3.464259701492538
H 2.1252477611940295 -0.1337492537313434 -2.0010597014925384
C 1.3965477611940298 2.0964507462686566 1.997440298507462
H 1.51704776119403 1.8448507462686567 3.057640298507462
H 2.1256477611940294 1.5207507462686571 1.4165402985074618
C 3.94864776119403 -1.4275492537313434 -3.522959701492538
H 4.81734776119403 -2.087049253731343 -3.615159701492538
H 3.4305477611940303 -1.3641492537313429 -4.484459701492538
H 4.26984776119403 -0.441449253731343 -3.176459701492538
C 2.60904776119403 -3.4296492537313434 -2.8992597014925376
H 1.9825477611940296 -3.869549253731343 -2.119359701492538
H 2.06294776119403 -3.373349253731343 -3.845759701492538
H 3.5215477611940305 -4.019849253731343 -3.0234597014925377
C 3.7281477611940304 -2.060049253731343 -1.156659701492538
H 3.9048477611940298 -1.032549253731343 -0.8295597014925382
H 3.12924776119403 -2.623249253731343 -0.4404597014925382
H 4.68244776119403 -2.5769492537313434 -1.3005597014925383
C 3.1110477611940297 3.755250746268656 2.588740298507462
H 3.40124776119403 4.809350746268656 2.534540298507462
H 2.9823477611940303 3.461750746268656 3.634840298507462
H 3.86514776119403 3.1392507462686563 2.091540298507462
C 1.99744776119403 3.9574507462686572 0.40494029850746194
H 2.67914776119403 3.230350746268657 -0.04295970149253803
H 1.03214776119403 3.981150746268657 -0.10175970149253821
H 2.4399477611940297 4.958250746268657 0.368240298507462
C 0.7418477611940297 4.4992507462686575 2.475440298507462
H -0.18475223880597014 4.424250746268656 1.901240298507462
H 0.57844776119403 4.189650746268656 3.511940298507462
H 1.1210477611940297 5.524350746268658 2.4432402985074617
N 3.00114776119403 -2.025349253731343 -2.490159701492538
N 1.7831477611940298 3.586450746268657 1.862540298507462
C -3.55075223880597 -3.8435492537313434 0.6444402985074619
H -2.62515223880597 -2.2736492537313433 1.7424402985074618
H -4.67195223880597 -1.3478492537313436 1.5102402985074619
H -4.83415223880597 -1.6757492537313432 -0.1945597014925382
H -3.7169522388059697 0.17335074626865676 -0.900559701492538
H -3.9132522388059705 -4.043149253731343 -0.34225970149253815
H -4.35435223880597 -3.9354492537313432 1.3449402985074619
H -2.78115223880597 -4.545049253731343 0.8904402985074619
H -5.24235223880597 1.138950746268657 1.5249402985074618
H -5.92805223880597 0.6501507462686567 -0.006059701492538094
H -4.89895223880597 2.059650746268657 0.08004029850746197
C 3.448941456277458 2.12024450733094 -3.3195576871000387
O 3.8182723702364347 2.036115767163613 -4.480717680241417
O 4.140939782447138 1.8524974949806694 -2.3305777489537345
O 2.3260171227224533 2.4861523602824813 -2.9537698132462964
O 6.758434866126297 -3.2709994564704368 7.4103728335855665
H 6.418045854733304 -4.128635088594136 7.114461021833001
H 7.514775728837883 -3.5001923487656406 7.971069776518247
O 7.131433728534459 -0.7740674850904874 1.3748226506321575
H 6.25701990016879 -1.1898730824943016 1.4132090913443633
H 7.674014968447372 -1.3148466109463732 1.968224267948043
O 9.084532946559065 -2.919217018766739 -0.26400370616711477
H 8.937327106823652 -2.5282766531669303 -1.1383396989024481
H 9.218490942254093 -2.153891255253768 0.3150417802954415
O 6.763760530639245 -5.531709456048519 -2.882246599675539
H 7.215916887181296 -4.852225775281189 -3.4045720860434745
H 6.2346491915628235 -6.0148706064689925 -3.5345950019002403
O -1.0141644595654635 -1.8194662868077802 -7.826722879347522
H -0.8184142266052596 -1.3996295999229038 -8.677831779278405
H -1.9822733723919637 -1.824729708013465 -7.7854994199693675
O 4.508335658871652 2.205962849988503 -9.98856023866276
H 3.55913363307108 2.3737927687908527 -9.889484563187454
H 4.551008044109408 1.4605322519974866 -10.606196244265474
O 0.2271897955709299 6.931603317613964 -4.802359669371848
H 0.3584649211677864 7.42028166721709 -5.62875404793979
H 0.002253627330320973 6.035229951480546 -5.093702170569107
O 5.3303185864036005 4.25824333463135 -5.883682997960188
H 5.358795757345931 4.699424038815999 -5.021409263064905
H 4.761402482550572 4.830153421996869 -6.420539834599394
O -3.5014775278193366 5.303774201834633 2.135942997391867
H -3.8660493739947066 5.7878760775645635 2.8920515212104037
H -3.57329852371449 4.373380925405031 2.397040756905842
O -2.448092850689905 -7.411970778729215 -5.9444194041955285
H -2.4489187931441254 -7.435795947418442 -6.913129389720605
H -3.0061568020958127 -8.162626313755506 -5.691352539166509
O -8.302779091868759 -0.5384216457626021 7.162911858989032
H -8.091375124314103 -0.12626997207996826 8.014032718375496
H -9.258335668065751 -0.6926843996411232 7.208481330705271
O 7.397398190673105 0.769182495754273 -5.978532967779745
H 7.435356352634943 1.6971017153663914 -5.701960270799517
H 6.5662185196770535 0.4458350560427685 -5.599654712854879
O 0.9350716831928318 -8.214596814641952 -1.015535131581526
H 0.8588707310627255 -8.845885018058697 -1.7467231894854605
H 0.9678424540940456 -8.774508395068105 -0.22535347969429909
O 3.777894153884447 -1.104920948737856 3.3697334626144744
H 4.109658848972326 -0.7009663208660539 2.553816676039886
H 4.559755809176999 -1.1571725513457465 3.9397545730201298
O -1.6725306066136296 4.177059808852883 -2.1733378798178187
H -0.7542717970671133 3.9405269256599795 -1.9737876085610042
H -1.6407125819908943 5.134066931986397 -2.3219545810354814
O -5.379790597376042 8.98792860507512 -4.50164680997608
H -5.162031443854467 8.63804621953211 -5.378647735998568
H -6.086815572782411 8.405242388000106 -4.186124384651938
O 2.882697201052525 -9.007050757776163 8.330303214401356
H 2.9707092960329193 -9.041008302185643 7.365902823891874
H 2.4292817043144943 -8.166566285297998 8.494504868293463
O -10.177571357921877 -2.078529111371852 3.9586752166474923
H -10.317605058908189 -1.8225694480461199 4.88271123880153
H -10.27740003043105 -1.248778978993935 3.4682561119381763
O -9.838724274900597 0.05433633966777984 -4.80670680972441
H -9.622483820076532 -0.09056854672271153 -3.8733205035801417
H -10.778025996858258 -0.17575304520338664 -4.867805863702225
O 2.984193711686915 8.663819457133172 -0.5445534457761538
H 3.287258369765148 8.894446427467065 0.34647425888769945
H 3.405493633222166 7.809265319510899 -0.7212043622386561
C -5.4244337593890215 -13.937689453172885 8.562495611497503
O -5.3934631984084955 -14.201479392711068 7.395330691937721
O -5.4554043203695475 -13.673899513634701 9.729660531057284
O 3.3458441849857197 -11.83332320177409 10.52291848817602
H 3.1405223280503733 -11.888480408768427 11.468311514637081
H 4.249745134894566 -12.17665542448812 10.459294578361161
O 12.597587968282033 3.057772755117762 11.102179724845318
H 12.341625086091835 3.3165006136869635 10.204120564744445
H 13.565316476004075 3.0213849970647684 11.068424566632872
O -4.678523689268457 -16.374432094451848 -0.3575861058777665
H -3.792701219971576 -16.389221966740763 -0.7501000157796396
H -5.257726718317793 -16.670630761217136 -1.0757449638239303
O 9.831021092168427 13.948634013166991 7.110389928504021
H 10.317755442575134 13.811190366303958 6.283851198031485
H 9.156837255044788 13.252652149946782 7.1035092214350275
O -11.296848767079062 2.1123021629954204 -13.853310999754786
H -10.960375265137216 1.3487066590565293 -13.360690612686506
H -11.860464573033546 1.719936841546188 -14.53694000886888
O 7.33421397905486 15.080349007452671 -14.670145555043709
H 7.226216794378776 14.120109177408082 -14.742557113499405
H 8.197734587999761 15.250009876955755 -15.075743005216756
O -0.4378175317640389 18.55745550883688 7.606354295131423
H -0.5651337849682676 19.46096130727029 7.280110213549473
H 0.5210394841993455 18.425172123491663 7.561008146459189
O 10.5648096437894 3.5986092840174777 -12.720894618492396
H 10.886033319390263 3.02531069030952 -13.433012185742324
H 9.711307939679191 3.9212139982392746 -13.047119975788302
O -2.3048339532958635 11.39169037550491 2.2039379119372806
H -1.91546372184271 12.133059705589279 2.691513235521619
H -2.1595633843684015 11.621201179015278 1.2737856678527337
O -9.240789065043373 10.61268014345273 0.08320123066039775
H -8.487451033190885 10.042824304621837 -0.13293180618256795
H -9.735183152134534 10.10611187885166 0.7449602685649497
O 0.26264018632916664 -5.252490386460718 13.977952270962552
H 0.20382030402343743 -5.266529405508469 14.945066785531388
H 0.8484708046423151 -5.995325278105229 13.768284069505293
O -16.364005700209965 -9.453581284870143 -13.353545714546868
H -16.32168886759051 -10.20547469233341 -13.963326778856297
H -15.45086536769276 -9.131602551284008 -13.315252470382486
O -1.0559803022265493 -15.30908596420653 -3.917870683397029
H -0.6310300206358812 -15.274772361890665 -3.04769415431105
H -0.4075139087449129 -14.901251348874585 -4.511271228865233
O -4.576586993249009 7.1107164310581075 -1.77052764647963
H -4.90742655638433 7.086233216746883 -0.8600809909410299
H -3.7171433566795162 7.551947256679767 -1.695468080923787
O 5.757628631979078 11.577570213622513 -11.486690209462715
H 6.498511134824535 12.197063368964052 -11.565991561042859
H 5.089181268333029 12.074302060278512 -10.991314050516442
O 10.3742823408812 4.955800885180444 8.655409579068822
H 10.612907953259683 5.364444604161701 7.809811870371499
H 9.573868086905788 4.448656970973395 8.452668323731535
O -11.238158449550065 -5.958997165524666 5.833068282992514
H -11.758070658998697 -6.622236500774807 6.311369689579611
H -11.84820609383058 -5.625624070986205 5.158037768241037
O -6.270836385918418 -3.7677194428465786 23.238238445236806
H -5.419962592886993 -4.152267387048691 22.979194001478135
H -6.244903045399155 -3.7730542774432454 24.2068771527482
O -2.963929577535095 6.041671623546995 5.714068918259336
H -3.7185077729500673 5.907100608529918 6.306917757190104
H -3.2056007198492065 6.828323490126091 5.202467663295847
O 0.24981336186130498 16.844283370707245 16.173217031918195
H 0.27108636122002494 16.819766004668733 15.204757577340551
H -0.6199257844355817 16.480676723470445 16.397506950960434