194

C -5.0710522388059704 1.0783507462686561 0.47044029850746183
C -3.8153522388059704 0.1782507462686569 0.19534029850746193
C -4.11845223880597 -1.3219492537313435 0.5608402985074619
C -2.96945223880597 -2.3874492537313436 0.7034402985074619
C -2.52015223880597 0.7359507462686565 0.7384402985074618
C -2.20305223880597 0.7852507462686571 2.097440298507462
C -1.5755522388059702 1.205650746268656 -0.18965970149253808
C -0.9533522388059701 1.2695507462686564 2.508640298507462
H -2.91125223880597 0.4298507462686567 2.840840298507462
C -0.32655223880597006 1.6562507462686575 0.21554029850746192
H -1.7850522388059702 1.178550746268657 -1.2573597014925382
C 0.004447761194029898 1.6956507462686563 1.569740298507462
H -0.7158522388059702 1.2676507462686573 3.5705402985074617
H 0.3943477611940298 1.9193507462686572 -0.5551597014925382
C -1.76045223880597 -2.1592492537313435 -0.1734597014925381
C -0.5287522388059701 -1.936549253731343 0.464840298507462
C -1.8068522388059702 -2.121249253731343 -1.5681597014925381
C 0.6114477611940299 -1.614449253731343 -0.2582597014925381
H -0.4544522388059702 -1.954049253731343 1.5506402985074619
C -0.6479522388059701 -1.8270492537313432 -2.2998597014925384
H -2.74345223880597 -2.290549253731343 -2.092259701492538
C 0.5698477611940298 -1.5506492537313434 -1.6506597014925382
H 1.5072477611940298 -1.351949253731343 0.2991402985074618
H -0.7173522388059701 -1.7640492537313435 -3.3840597014925375
C 1.7791477611940298 -1.082849253731343 -2.4255597014925376
H 1.4739477611940297 -0.9102492537313429 -3.464259701492538
H 2.1252477611940295 -0.1337492537313434 -2.0010597014925384
C 1.3965477611940298 2.0964507462686566 1.997440298507462
H 1.51704776119403 1.8448507462686567 3.057640298507462
H 2.1256477611940294 1.5207507462686571 1.4165402985074618
C 3.94864776119403 -1.4275492537313434 -3.522959701492538
H 4.81734776119403 -2.087049253731343 -3.615159701492538
H 3.4305477611940303 -1.3641492537313429 -4.484459701492538
H 4.26984776119403 -0.441449253731343 -3.176459701492538
C 2.60904776119403 -3.4296492537313434 -2.8992597014925376
H 1.9825477611940296 -3.869549253731343 -2.119359701492538
H 2.06294776119403 -3.373349253731343 -3.845759701492538
H 3.5215477611940305 -4.019849253731343 -3.0234597014925377
C 3.7281477611940304 -2.060049253731343 -1.156659701492538
H 3.9048477611940298 -1.032549253731343 -0.8295597014925382
H 3.12924776119403 -2.623249253731343 -0.4404597014925382
H 4.68244776119403 -2.5769492537313434 -1.3005597014925383
C 3.1110477611940297 3.755250746268656 2.588740298507462
H 3.40124776119403 4.809350746268656 2.534540298507462
H 2.9823477611940303 3.461750746268656 3.634840298507462
H 3.86514776119403 3.1392507462686563 2.091540298507462
C 1.99744776119403 3.9574507462686572 0.40494029850746194
H 2.67914776119403 3.230350746268657 -0.04295970149253803
H 1.03214776119403 3.981150746268657 -0.10175970149253821
H 2.4399477611940297 4.958250746268657 0.368240298507462
C 0.7418477611940297 4.4992507462686575 2.475440298507462
H -0.18475223880597014 4.424250746268656 1.901240298507462
H 0.57844776119403 4.189650746268656 3.511940298507462
H 1.1210477611940297 5.524350746268658 2.4432402985074617
N 3.00114776119403 -2.025349253731343 -2.490159701492538
N 1.7831477611940298 3.586450746268657 1.862540298507462
C -3.55075223880597 -3.8435492537313434 0.6444402985074619
H -2.62515223880597 -2.2736492537313433 1.7424402985074618
H -4.67195223880597 -1.3478492537313436 1.5102402985074619
H -4.83415223880597 -1.6757492537313432 -0.1945597014925382
H -3.7169522388059697 0.17335074626865676 -0.900559701492538
H -3.9132522388059705 -4.043149253731343 -0.34225970149253815
H -4.35435223880597 -3.9354492537313432 1.3449402985074619
H -2.78115223880597 -4.545049253731343 0.8904402985074619
H -5.24235223880597 1.138950746268657 1.5249402985074618
H -5.92805223880597 0.6501507462686567 -0.006059701492538094
H -4.89895223880597 2.059650746268657 0.08004029850746197
C 0.7378056080896294 2.0271340390268158 -3.5067567138556344
O -0.48055886488286353 2.055660860170929 -3.5876871165104482
O 1.51578687630771 2.0213763664940068 -4.467664336683549
O 1.3813383552516265 1.999608166264917 -2.4514101764287903
O 8.8764799636349 -4.719019722077828 -1.3586100008733482
H 9.362323593665726 -4.51119628779505 -0.5463706616257454
H 8.032631195880242 -4.254814358867158 -1.2518645924222487
O 4.652387467993163 7.934039415823755 0.2783897970944724
H 4.883953584690269 7.558277058599276 -0.584249838785381
H 3.889797728877882 8.50126585565676 0.0895168237751971
O 4.394161059731413 0.025941006956577084 5.228845678408313
H 4.377661502970834 -0.2601926121440181 6.154492843124492
H 5.179177861111375 -0.40896733450103273 4.86337981080675
O -0.19505346001590196 -5.618079396225305 4.841962707630964
H 0.6300254646551844 -6.100862584515406 4.683430319558211
H -0.012927724460166878 -5.098987725688929 5.639669419604754
O -1.4140081528244914 7.07691756446699 3.0193735905750803
H -1.3483479714257964 7.472479379663019 3.9015226413808466
H -0.7507303287390104 6.370575388681264 3.029630445975952
O -1.4614670992481162 -10.52565783684865 -2.91199802587725
H -1.6982212834136607 -10.591499270297513 -1.9746721920171635
H -1.0823040851234937 -9.63786903995899 -2.9958336098326237
O 1.9105490730155164 7.799508894751792 0.2040622215526604
H 1.9909629539533076 7.555863770088714 1.1384807668953973
H 1.7611458027847773 6.954539257040924 -0.2461232052340404
O -2.777071694351682 3.9823880350107634 6.396465416645735
H -2.539210263204477 4.059668752602643 7.332636868443475
H -3.4992367054871347 3.336315301328775 6.391018969692456
O 4.095899809925085 -7.054092045581361 -5.577065683926676
H 4.473444793128493 -7.896192770166265 -5.281610928995371
H 3.5137783740533126 -7.303115180419221 -6.31060781394656
O 1.181184548701344 6.776965469030666 -3.154607251326161
H 1.755904931209789 7.20849998543901 -2.504652022116053
H 1.6927068606391145 6.006712722867551 -3.4444651056582747
O -3.233047726479195 2.6163928823228835 -1.6561809986478855
H -2.4081771396041933 3.0511185190621033 -1.919941292418899
H -3.683917538343622 3.279935960571064 -1.112684043405021
O -3.5060646202153083 0.05352198165334432 7.775644309401772
H -2.9185355422797365 -0.5157954941753684 8.294927037013814
H -4.386224846853619 -0.32554792406247324 7.919122273997734
O 7.083145937644847 -4.8467504986752346 -4.155884748914613
H 6.851724879134572 -4.882314676123628 -5.096175576191156
H 7.065863362148557 -3.9008666149648152 -3.9462018086903172
O -1.13537082748906 -7.438920630279723 2.161039354214386
H -1.1558990577108537 -7.384089161241575 1.1938064667115464
H -1.3861151235806894 -6.5490653852918275 2.4512924941544116
O -7.29578283132849 -4.189238164261671 -3.603847198642544
H -6.996501231926242 -4.126783948094314 -4.523356498237797
H -8.00829935645649 -3.535188495876529 -3.5446764541415132
O 3.875606132603018 1.8380037119516954 10.747723368684152
H 3.3426896273603934 1.050973141074742 10.55917566690796
H 3.850982947399386 2.341158068606238 9.919960518327859
O -0.2519800681205906 -5.541718917059425 -0.6819009993296419
H 0.3816987189925094 -5.751895204663988 -1.3842146613010125
H -0.44172291110730855 -4.60040638532578 -0.8118637456707019
O -6.144910316616688 7.974665618684005 -0.28082667411561246
H -6.63953098189275 7.151296211908312 -0.15284005619128305
H -5.246874578164816 7.677887997119377 -0.4915796102793655
O -0.24915577346832218 -4.226197838543682 8.07719700019839
H 0.1994081781398056 -3.6864725091929804 7.4090246369005825
H 0.2925453819287762 -4.1120591146441505 8.87249201102647
O 1.3902762942100177 -4.610083854506894 1.4901577646288406
H 1.3476841637366972 -4.707115536712651 0.5269661326209283
H 2.2607299809438213 -4.966506295145916 1.7230426446886093
C 9.5101542341082 -14.574292111050191 6.1763238180372335
O 9.668786715925663 -14.548404088019156 4.990160337198282
O 9.351521752290733 -14.600180134081224 7.362487298876185
O -0.7111919817081649 8.922433705174093 -10.842273787905613
H -0.15186063169246 8.136048376625615 -10.930102671727019
H -0.4101638935841674 9.504666989224685 -11.555960299900951
O -11.878389535465963 -5.481221214280244 7.165262558145928
H -12.137663221025118 -4.82171548554131 7.826168532273185
H -11.795030923477455 -4.971026485046877 6.345680576664003
O 1.7863652426154317 -15.330409284297069 15.319106867326116
H 1.4695904467425143 -14.415808713334904 15.365224989527217
H 1.0110304661698226 -15.83213423677076 15.025695891390807
O 21.83507763829458 1.0360577763701748 -3.2232044557627093
H 22.02303594928567 1.289197940853395 -2.3069298859121723
H 21.590807768923458 0.10034307155413913 -3.1621129963886476
O 3.8037392656263127 -11.880412876747469 13.653556153146452
H 3.785272401188823 -11.795675913830541 12.68844166308143
H 4.150250184901223 -12.772817941634205 13.80357390972132
O 2.0074503505469816 16.364307599343142 10.861272394804711
H 1.6542826848469256 16.619982091746746 11.726645441957288
H 1.8790867308416255 17.153368599694474 10.313670839693065
O -12.70123931966351 0.5537406181569686 6.107355883611271
H -12.076451768153298 1.1154485492283914 6.590151981927463
H -12.3051978949837 0.4658139842962541 5.2273660874797985
O -7.561008855070957 -3.5055712867750253 12.290694035062526
H -6.849049400439291 -3.418936175707582 12.942288578771198
H -8.16106147064551 -4.156403076668109 12.68479653963044
O -2.1696179175495653 3.9356255694124984 -8.216182058548375
H -2.3567438524098887 3.97161545260428 -9.166264144323332
H -2.3874510313294253 3.024334792192038 -7.96907924959247
O -0.687168801026645 -10.066218699902553 12.585529717679965
H -1.530008132713892 -10.000381123399187 13.059085027418076
H -0.8059615327837271 -9.490593703452799 11.81513625025964
O -11.797586864752258 4.29032026119992 -5.348234697069702
H -11.563422880271059 4.684681339749098 -4.494645846980022
H -12.73588622313913 4.067592961607099 -5.253636555614
O 1.207304604396321 5.115164874140401 -13.807240204057488
H 1.5227378607721738 5.032068370396761 -14.719689758135798
H 1.6188510582696 5.933415499325385 -13.490921733226724
O -3.9491510100273444 5.247583670805071 -6.1589861233711
H -4.221319156250591 4.464489450507085 -6.660638691606621
H -4.7569935010689655 5.7792827260891055 -6.098582741199807
O 0.9576494508045448 -7.8433716426353195 6.10737862110434
H 0.511661841833692 -8.411128029911781 5.461069798441953
H 1.7569388850773506 -8.338529329653653 6.3417228327813335
O 6.244403233521535 9.800081694494958 -8.654416898616283
H 6.114317022207724 9.660173688383292 -9.6044014692025
H 6.21536662541159 8.906756104201484 -8.280133303709578
O -23.74980836462852 -0.3796396952899581 -7.664036001252372
H -23.346199274707786 0.366757766451566 -7.196106638485759
H -24.38413954570362 -0.7402290516594752 -7.026414473158406
O 5.632514329532646 -6.944381436960933 13.632752972244683
H 5.684337215861245 -7.283691483695049 12.726579458210058
H 5.018157494980526 -7.549649131385282 14.074543241745195
O 5.341926105092447 9.281301302900754 12.180330719202537
H 5.503031941217242 8.869798294198167 11.317963314730841
H 5.893120838540574 10.078134423407723 12.166072802728667
O 15.627456604053705 3.7185839038762554 -8.276765390027789
H 15.701830573364932 3.736002179229513 -9.242753212555906
H 16.524561171465635 3.917682730400074 -7.969316212592726
O 1.2369421235821725 -1.5443770383893023 7.25720505632265
H 0.645336882666133 -0.9681637573502581 6.750303832636126
H 1.5337939988815692 -2.2021148474395664 6.610504288596965