194

C -5.0710522388059704 1.0783507462686561 0.47044029850746183
C -3.8153522388059704 0.1782507462686569 0.19534029850746193
C -4.11845223880597 -1.3219492537313435 0.5608402985074619
C -2.96945223880597 -2.3874492537313436 0.7034402985074619
C -2.52015223880597 0.7359507462686565 0.7384402985074618
C -2.20305223880597 0.7852507462686571 2.097440298507462
C -1.5755522388059702 1.205650746268656 -0.18965970149253808
C -0.9533522388059701 1.2695507462686564 2.508640298507462
H -2.91125223880597 0.4298507462686567 2.840840298507462
C -0.32655223880597006 1.6562507462686575 0.21554029850746192
H -1.7850522388059702 1.178550746268657 -1.2573597014925382
C 0.004447761194029898 1.6956507462686563 1.569740298507462
H -0.7158522388059702 1.2676507462686573 3.5705402985074617
H 0.3943477611940298 1.9193507462686572 -0.5551597014925382
C -1.76045223880597 -2.1592492537313435 -0.1734597014925381
C -0.5287522388059701 -1.936549253731343 0.464840298507462
C -1.8068522388059702 -2.121249253731343 -1.5681597014925381
C 0.6114477611940299 -1.614449253731343 -0.2582597014925381
H -0.4544522388059702 -1.954049253731343 1.5506402985074619
C -0.6479522388059701 -1.8270492537313432 -2.2998597014925384
H -2.74345223880597 -2.290549253731343 -2.092259701492538
C 0.5698477611940298 -1.5506492537313434 -1.6506597014925382
H 1.5072477611940298 -1.351949253731343 0.2991402985074618
H -0.7173522388059701 -1.7640492537313435 -3.3840597014925375
C 1.7791477611940298 -1.082849253731343 -2.4255597014925376
H 1.4739477611940297 -0.9102492537313429 -3.464259701492538
H 2.1252477611940295 -0.1337492537313434 -2.0010597014925384
C 1.3965477611940298 2.0964507462686566 1.997440298507462
H 1.51704776119403 1.8448507462686567 3.057640298507462
H 2.1256477611940294 1.5207507462686571 1.4165402985074618
C 3.94864776119403 -1.4275492537313434 -3.522959701492538
H 4.81734776119403 -2.087049253731343 -3.615159701492538
H 3.4305477611940303 -1.3641492537313429 -4.484459701492538
H 4.26984776119403 -0.441449253731343 -3.176459701492538
C 2.60904776119403 -3.4296492537313434 -2.8992597014925376
H 1.9825477611940296 -3.869549253731343 -2.119359701492538
H 2.06294776119403 -3.373349253731343 -3.845759701492538
H 3.5215477611940305 -4.019849253731343 -3.0234597014925377
C 3.7281477611940304 -2.060049253731343 -1.156659701492538
H 3.9048477611940298 -1.032549253731343 -0.8295597014925382
H 3.12924776119403 -2.623249253731343 -0.4404597014925382
H 4.68244776119403 -2.5769492537313434 -1.3005597014925383
C 3.1110477611940297 3.755250746268656 2.588740298507462
H 3.40124776119403 4.809350746268656 2.534540298507462
H 2.9823477611940303 3.461750746268656 3.634840298507462
H 3.86514776119403 3.1392507462686563 2.091540298507462
C 1.99744776119403 3.9574507462686572 0.40494029850746194
H 2.67914776119403 3.230350746268657 -0.04295970149253803
H 1.03214776119403 3.981150746268657 -0.10175970149253821
H 2.4399477611940297 4.958250746268657 0.368240298507462
C 0.7418477611940297 4.4992507462686575 2.475440298507462
H -0.18475223880597014 4.424250746268656 1.901240298507462
H 0.57844776119403 4.189650746268656 3.511940298507462
H 1.1210477611940297 5.524350746268658 2.4432402985074617
N 3.00114776119403 -2.025349253731343 -2.490159701492538
N 1.7831477611940298 3.586450746268657 1.862540298507462
C -3.55075223880597 -3.8435492537313434 0.6444402985074619
H -2.62515223880597 -2.2736492537313433 1.7424402985074618
H -4.67195223880597 -1.3478492537313436 1.5102402985074619
H -4.83415223880597 -1.6757492537313432 -0.1945597014925382
H -3.7169522388059697 0.17335074626865676 -0.900559701492538
H -3.9132522388059705 -4.043149253731343 -0.34225970149253815
H -4.35435223880597 -3.9354492537313432 1.3449402985074619
H -2.78115223880597 -4.545049253731343 0.8904402985074619
H -5.24235223880597 1.138950746268657 1.5249402985074618
H -5.92805223880597 0.6501507462686567 -0.006059701492538094
H -4.89895223880597 2.059650746268657 0.08004029850746197
C 2.994968967612877 -2.4849565858908047 2.654279342298964
O 2.670549786324525 -2.5501043206026406 3.8299848607320923
O 2.228993774202337 -2.630103554620746 1.6946722223544552
O 4.1394705095337745 -2.2637965572966827 2.2421472679672796
O 2.482394068310124 9.068843790931094 6.743377254903786
H 2.851977626202839 8.707312647451435 7.562932367711736
H 2.034478440638702 8.31277192116622 6.335101781065392
O 2.4169721488239664 2.677515121468408 7.784602530386189
H 2.4424726905302094 2.640137464160064 8.75254880472523
H 3.0077176086601827 1.9613050419680047 7.507068986458751
O 6.437161556873577 9.09097157004722 0.16598740900016984
H 6.402066952645675 8.37411932881868 -0.48505682137108974
H 7.317393945402334 9.00473387249485 0.5618610580421637
O 4.694107429862831 0.005433272360657715 1.872895458846844
H 4.872240948421822 0.1000474143216512 2.820673898465925
H 4.335281922241354 0.8677962757289792 1.614949243907069
O -1.1669237726767023 -3.753719344831592 4.416935378628131
H -1.2279248471978947 -4.1959588216717085 5.276976349123981
H -0.9514742912163187 -2.835807869074599 4.640501896497129
O -0.12267135186142886 10.651828116650442 -0.3625387281546475
H 0.7011344796185055 11.01931994815147 -0.008616331717694159
H -0.7201830449420394 10.639516909829185 0.4002129713639735
O 3.5477826057076953 -6.302572506592075 3.4766722401024106
H 4.102590338654172 -6.428013331398365 2.6921849324710445
H 4.1716941840434 -6.358521684482453 4.215973245249868
O 6.473277823302858 -5.676937764765757 -3.3190585995564392
H 6.922374664043952 -6.410308223641488 -2.872463531754779
H 7.019567147538128 -4.904838239440705 -3.108363935363438
O 4.573842739002899 11.650938695949833 4.169083222812146
H 5.096743527910383 10.843138347410774 4.055062528374211
H 5.238125675108799 12.34101631267515 4.31565405208329
O 3.836556109928017 6.443301037985313 -6.924034982044972
H 4.451452168928224 7.020954678908462 -6.447394169006218
H 3.0420336796395517 6.9870270517096325 -7.033844244258913
O 2.3097209973092454 3.4415697618585837 -3.3878721894665023
H 1.732641610956133 2.663412049482812 -3.4083004399158936
H 2.3760927192932675 3.70820427721297 -4.317099166067271
O -6.760051693422835 5.322920584497062 5.285067237355288
H -6.921189076920118 5.1323893092252915 6.221389795923095
H -7.225714401522816 6.1589481127563515 5.132823490102224
O -7.874272500451827 -0.7187823301613694 -0.6940960791708598
H -8.047975962406468 -0.7809205914503474 -1.6453759016673515
H -8.75493820515458 -0.7611089861886118 -0.29210315006643817
O -3.4706721197831145 3.9880545059681918 0.6607983386516356
H -3.7517436409927614 3.7756244390850524 -0.24188633694052308
H -2.7008845782704496 3.417839352460234 0.8065507449500653
O -6.267833131424062 -5.010049618491227 -3.2224797087837818
H -6.235149730558373 -5.235427625738202 -4.164341644556343
H -6.682583497912754 -5.783153010437442 -2.811073312189427
O 3.503835036721546 8.357791739940126 -3.3872961809102153
H 3.4420101383244632 8.415636473450506 -2.4219988041172895
H 2.7894506780876243 8.93166362140488 -3.702396158858964
O 1.6225127832806796 6.9874310144788545 -0.6474706448693728
H 0.9302982809851796 6.796371418681559 0.0031465010509976743
H 2.09299530616477 7.747013045324751 -0.27244627449240255
O 10.880466173414867 -3.5874375404581595 -1.6893901934714353
H 11.180773211959522 -3.168100760409285 -2.509719215510019
H 9.929579898169953 -3.4023720747325683 -1.666411741682405
O 7.111695883424164 4.2114954486161515 0.9158634712395826
H 6.854235308896499 4.2498544497272785 1.8492497773838505
H 7.862015240749468 4.8216181509686855 0.8547644172617679
O -5.817483586458124 0.8228607882234718 -6.3547139716228775
H -6.578101860445194 0.4460396327584837 -5.887345792377687
H -6.152081875310344 0.9918658208160642 -7.248270477030086
C -10.690983899905394 -14.053538082447961 -0.4482528495709772
O -11.463509006112334 -14.667419078120535 -1.125876152543956
O -9.918458793698456 -13.439657086775387 0.22937045340200157
O -5.963420441858974 -12.815924300370783 4.805932352564755
H -5.454815810273403 -12.081199646613866 5.180723452767902
H -6.777450195094753 -12.829172058946535 5.331424504779814
O 21.34761766046986 4.5486626197419415 1.5340426148368347
H 21.98654626240661 4.579077273820019 2.261924849366888
H 20.64632163498618 5.156551674824614 1.8126403995579077
O -16.768511026412792 6.450398525562324 4.574824036886428
H -17.307357896223245 6.648647606062898 5.355406325870848
H -17.223907647526183 6.909659967516928 3.853259909651513
O 3.407474183501931 -13.420458882176307 7.938622544070693
H 2.9529006397793163 -13.483819756737855 7.085208430159831
H 4.020141812519523 -14.171176447207538 7.933779176694657
O -7.914724477600452 13.239504751155172 7.0088493019745846
H -8.80139586250316 13.352273068421555 7.383101247481385
H -8.079683953109528 12.990832431513162 6.086942368936531
O 10.705115918375391 -4.2848189472393905 -7.547746545393659
H 10.045255767357917 -4.038337888444906 -8.213178003663215
H 11.239193451499908 -3.4835372095225625 -7.439715486372971
O 6.629108200543499 -15.048849502593523 -5.176846974470916
H 6.052118940919661 -15.564401211125809 -5.760162658306158
H 6.469212534485927 -14.130512696655813 -5.44152192820876
O 5.284371335520919 -14.493876369297812 13.466142439335766
H 5.284806163007854 -14.56082979797553 14.43282977566192
H 5.870673467757772 -13.744387972893612 13.283170043357629
O 4.0744405069631195 10.218975197533945 11.858730621390945
H 3.67108710255647 10.362834312532346 10.989490756287275
H 4.272089324280538 9.270424969900338 11.870951708464418
O -0.9584283307582124 1.9060814300100486 -16.02202817582558
H -1.4589988569797727 2.666980872051651 -16.352828031144547
H -0.559026327197218 1.5246182074058823 -16.81822274604815
O -9.575780508827748 -4.07544269968646 -8.24712996128379
H -9.81157738136028 -4.2763597008235426 -7.3289798916013
H -10.312870717979475 -4.436219127542854 -8.762397209394749
O 17.666393892987717 -5.662628846439091 2.3018035353305155
H 16.895839373273883 -5.195859780187802 2.6586504602710095
H 18.40460264617285 -5.0575514464541245 2.4688098856537435
O 1.6833340374837207 15.980608342476309 -3.9202646601902367
H 2.629514834579229 15.771802166672854 -3.9307163133631198
H 1.3684205787645167 15.598120406817337 -3.0875015264644183
O -16.422665081057488 -4.1059949027670894 -4.959416193180069
H -16.379975497944436 -4.101267940579047 -5.927467127905152
H -15.641848172657715 -4.614329173560822 -4.69317726102773
O -7.287379411259034 -1.8083617499422768 3.484081023887753
H -7.290940100397551 -1.897433573650777 4.448975260897231
H -6.8179674064604185 -2.598805012620845 3.1777906999514545
O 13.215579052222715 -3.663349645375555 7.893164416558381
H 14.167511949945094 -3.725906684302189 7.723229923254024
H 12.897501052152341 -4.571684192725682 7.780396157453845
O 1.8898079412350222 -4.841204053027814 15.507633843116425
H 2.260824418957184 -5.173526954707171 16.338823123111094
H 2.3957510338669117 -4.033701536006264 15.33178386068271
O -13.159837134714968 3.915405571107406 3.5554583321276336
H -12.542838342064398 3.8906574947348957 4.302229635461927
H -13.724552259394528 4.680020848148734 3.743666329761007
O 5.864465260237017 3.090550566048854 -5.113388559472674
H 5.036229370792189 3.5165702346137095 -4.845993888001038
H 5.810547544936645 3.0603130114848014 -6.080415195388549
O -0.8502802772066298 -12.611777833857289 -1.9768395996970785
H -1.050719822906673 -11.670624045268907 -1.8627304780402125
H -0.35375636696236756 -12.646212853395369 -2.8082481516648574