194

C -5.0710522388059704 1.0783507462686561 0.47044029850746183
C -3.8153522388059704 0.1782507462686569 0.19534029850746193
C -4.11845223880597 -1.3219492537313435 0.5608402985074619
C -2.96945223880597 -2.3874492537313436 0.7034402985074619
C -2.52015223880597 0.7359507462686565 0.7384402985074618
C -2.20305223880597 0.7852507462686571 2.097440298507462
C -1.5755522388059702 1.205650746268656 -0.18965970149253808
C -0.9533522388059701 1.2695507462686564 2.508640298507462
H -2.91125223880597 0.4298507462686567 2.840840298507462
C -0.32655223880597006 1.6562507462686575 0.21554029850746192
H -1.7850522388059702 1.178550746268657 -1.2573597014925382
C 0.004447761194029898 1.6956507462686563 1.569740298507462
H -0.7158522388059702 1.2676507462686573 3.5705402985074617
H 0.3943477611940298 1.9193507462686572 -0.5551597014925382
C -1.76045223880597 -2.1592492537313435 -0.1734597014925381
C -0.5287522388059701 -1.936549253731343 0.464840298507462
C -1.8068522388059702 -2.121249253731343 -1.5681597014925381
C 0.6114477611940299 -1.614449253731343 -0.2582597014925381
H -0.4544522388059702 -1.954049253731343 1.5506402985074619
C -0.6479522388059701 -1.8270492537313432 -2.2998597014925384
H -2.74345223880597 -2.290549253731343 -2.092259701492538
C 0.5698477611940298 -1.5506492537313434 -1.6506597014925382
H 1.5072477611940298 -1.351949253731343 0.2991402985074618
H -0.7173522388059701 -1.7640492537313435 -3.3840597014925375
C 1.7791477611940298 -1.082849253731343 -2.4255597014925376
H 1.4739477611940297 -0.9102492537313429 -3.464259701492538
H 2.1252477611940295 -0.1337492537313434 -2.0010597014925384
C 1.3965477611940298 2.0964507462686566 1.997440298507462
H 1.51704776119403 1.8448507462686567 3.057640298507462
H 2.1256477611940294 1.5207507462686571 1.4165402985074618
C 3.94864776119403 -1.4275492537313434 -3.522959701492538
H 4.81734776119403 -2.087049253731343 -3.615159701492538
H 3.4305477611940303 -1.3641492537313429 -4.484459701492538
H 4.26984776119403 -0.441449253731343 -3.176459701492538
C 2.60904776119403 -3.4296492537313434 -2.8992597014925376
H 1.9825477611940296 -3.869549253731343 -2.119359701492538
H 2.06294776119403 -3.373349253731343 -3.845759701492538
H 3.5215477611940305 -4.019849253731343 -3.0234597014925377
C 3.7281477611940304 -2.060049253731343 -1.156659701492538
H 3.9048477611940298 -1.032549253731343 -0.8295597014925382
H 3.12924776119403 -2.623249253731343 -0.4404597014925382
H 4.68244776119403 -2.5769492537313434 -1.3005597014925383
C 3.1110477611940297 3.755250746268656 2.588740298507462
H 3.40124776119403 4.809350746268656 2.534540298507462
H 2.9823477611940303 3.461750746268656 3.634840298507462
H 3.86514776119403 3.1392507462686563 2.091540298507462
C 1.99744776119403 3.9574507462686572 0.40494029850746194
H 2.67914776119403 3.230350746268657 -0.04295970149253803
H 1.03214776119403 3.981150746268657 -0.10175970149253821
H 2.4399477611940297 4.958250746268657 0.368240298507462
C 0.7418477611940297 4.4992507462686575 2.475440298507462
H -0.18475223880597014 4.424250746268656 1.901240298507462
H 0.57844776119403 4.189650746268656 3.511940298507462
H 1.1210477611940297 5.524350746268658 2.4432402985074617
N 3.00114776119403 -2.025349253731343 -2.490159701492538
N 1.7831477611940298 3.586450746268657 1.862540298507462
C -3.55075223880597 -3.8435492537313434 0.6444402985074619
H -2.62515223880597 -2.2736492537313433 1.7424402985074618
H -4.67195223880597 -1.3478492537313436 1.5102402985074619
H -4.83415223880597 -1.6757492537313432 -0.1945597014925382
H -3.7169522388059697 0.17335074626865676 -0.900559701492538
H -3.9132522388059705 -4.043149253731343 -0.34225970149253815
H -4.35435223880597 -3.9354492537313432 1.3449402985074619
H -2.78115223880597 -4.545049253731343 0.8904402985074619
H -5.24235223880597 1.138950746268657 1.5249402985074618
H -5.92805223880597 0.6501507462686567 -0.006059701492538094
H -4.89895223880597 2.059650746268657 0.08004029850746197
C 4.838620714624776 -0.0669805995659134 1.8553733740050984
O 4.961476193930512 0.03846373466481001 0.6447687638275241
O 5.559809853873897 0.48340909222358297 2.69536675296768
O 3.974080004795276 -0.7404050369114963 2.4278393316246674
O 2.3446349771763595 -3.260469675812374 6.516619967454008
H 2.314314086893381 -3.0674159685803506 5.567526575507556
H 3.186158485830054 -3.726340668338566 6.633941521338351
O -6.661347543252886 -10.699436765213346 -3.929213657359127
H -5.761059773490642 -10.597058231537515 -3.5857490676866104
H -6.9783946989423224 -9.789312472571307 -4.029796048025008
O -6.209929783356633 -5.697661337556232 -0.9452577346637414
H -6.7660378314421505 -5.086705697635127 -0.4388543363703361
H -5.371156337976988 -5.707501263329731 -0.46015544907158734
O -0.5429516188511607 -8.369634617515368 -2.4309088956299956
H -1.2622241841058117 -8.755091557729553 -1.9083792017247454
H -0.7900272057603084 -7.436607338605283 -2.516790764864071
O -0.26247164464299133 -3.4707409611238607 -4.929928055578486
H -0.30630740141283397 -3.6634694656327276 -3.981296669381407
H 0.4947360361176656 -3.9901055683400557 -5.239538903689843
O -10.629819924995099 -0.6359886468252687 -0.028488944013367767
H -10.083712304096935 -0.23580432312371835 0.664754397361421
H -10.740594255613294 0.07419929427517769 -0.6783536070714526
O 7.601972864806272 5.046127105157501 -4.462496455795607
H 7.545660787361207 4.998860197203266 -5.428706653550871
H 8.116297202303839 4.261704521519222 -4.2193635077282226
O -8.845895284831181 1.8416136611056624 4.504811562800553
H -9.298277750311156 1.4955292519849976 5.288739520963713
H -9.379433999725268 2.6079531027588665 4.245925015881209
O 1.2399591739083295 -1.2671363592583165 -7.803279535601079
H 1.2725966102231556 -1.276682832622699 -8.771685968612084
H 1.751188480819335 -2.0484532743388293 -7.544145558160137
O 1.5188558219140367 8.535388918916832 -0.7977203844167786
H 0.767140121255931 7.973013359585504 -1.0377716134302393
H 1.1958531026843287 9.43597506295158 -0.9512644655232612
O 0.030931470995125387 5.572812863524012 5.355929877144382
H 0.6770670318370078 6.271146133890934 5.53979623462771
H -0.7248592383867356 5.799212649624984 5.918500303638252
O -6.802608222702033 4.287947450625793 2.8044856056698815
H -6.280744064860228 4.754862805649623 2.1346981700583783
H -6.140506546769169 3.808350124629983 3.324648772305661
O -4.0212019463424875 -10.949275138296594 2.216292776069066
H -3.162440486139158 -10.500479539333341 2.2251596650759504
H -4.6641957523330815 -10.224358154098184 2.2203271010945853
O 1.9629135991575386 -8.437244776110154 1.892043588351517
H 2.3015013886254185 -7.589879750611452 1.5660095728181083
H 1.7640988098117674 -8.266518193810782 2.824935360173828
O 1.4180116929016429 -0.21157040271550853 8.058612718915509
H 1.9264533452630883 -0.5529018472785356 7.307648480088863
H 0.5196319772721614 -0.538781107606381 7.901104035185659
O 5.994186767194612 10.145591597560664 -0.8740752935569018
H 5.613849989413134 9.702844928212675 -1.647565228299472
H 5.255080041902344 10.6548573649361 -0.5089293349222133
O 7.140084057933359 4.769939034978227 -0.9275340415395275
H 6.905599982950486 4.8986430302526855 0.003819735002888014
H 7.235398802773277 5.67079039450422 -1.2715454828554713
O 4.638886852944728 -7.108785088984359 -1.7938305775224848
H 3.9686735396237247 -6.667614418466686 -1.2505535662084846
H 4.862223610618576 -6.451299921918999 -2.469697348462413
O -3.3546310680679876 6.375619850111185 4.6844444786974515
H -3.7467109182518703 7.13049930664238 4.220334842849463
H -2.990113522238485 6.762589600049409 5.494594659660947
O -3.1295631373600923 5.781990789057033 -6.049093202112827
H -3.144098796227092 5.768217367997591 -7.017889550368548
H -2.8889501730312395 6.695092104981853 -5.831576920990603
C -13.450316523092004 -2.2487295417699604 0.179446027008969
O -14.445575015425671 -1.8332817611227323 0.6987551182956595
O -12.455058030758337 -2.6641773224171894 -0.3398630642777219
O -3.6403326106635 -15.912076891274971 9.877183419707123
H -3.5545100431720726 -15.551291064629767 8.98195415795284
H -4.50995470372062 -15.602489172727768 10.171928740436204
O -12.445420788253823 3.9804228656473866 -16.698021440595156
H -13.229130818819883 4.519734126315883 -16.882166245046186
H -12.412211975173477 3.3555250692734293 -17.437860519801415
O -16.268332367473214 -4.004813845977111 1.3429369023913795
H -16.11313828708488 -4.0470357187785355 0.3873745194097351
H -15.880775046247205 -3.1564669339570166 1.6057463084827315
O 4.94282920959325 13.215668127214272 -2.0671317099068336
H 4.838202051290303 12.324504949656527 -1.7012783163041076
H 4.200452857038754 13.304261726823297 -2.6835653799607964
O -12.612570861131895 5.083790709620952 -9.960777066926527
H -12.63336410229924 5.876972480579876 -10.517012337509238
H -11.686339422543433 5.016053703666817 -9.684246843452275
O 14.153354425923135 -2.129217236666834 -2.2970874174181146
H 14.204663690034208 -1.1623798065733921 -2.3365855197357
H 14.228131958198066 -2.3291539577240425 -1.35189136762751
O -10.052405445780256 -0.14040289514637827 8.90907495744235
H -10.449257489810462 -1.0192455004606178 8.813620847349963
H -10.371297756225891 0.16810193851222177 9.77052397290869
O 11.897555886057972 -4.838610266923629 -2.65182568046864
H 11.161422777532795 -4.455586576577528 -3.1521938010226105
H 11.916239776858383 -4.323184582027247 -1.8314908586588796
O 16.492308638860056 6.20855023307058 2.506746479801876
H 16.978138644280335 6.144241488957281 3.342689628684564
H 16.289544084109362 7.1526438949088345 2.4259031911899513
O 5.358281919010868 7.290209035175456 -15.784051610718496
H 5.51642499504006 7.773963572893832 -14.959467065847015
H 4.735193874020504 7.851857115278448 -16.26910281070331
O -4.888437563712653 17.534236986674788 -5.462432574484254
H -5.408337198680441 18.307412897358883 -5.196216989669645
H -4.002926833006946 17.892422030980786 -5.625331819849455
O 10.258264716255942 5.55900223769625 -15.833657103855831
H 10.291881007152885 5.070092898600311 -16.669602652340366
H 10.32641209473033 4.8694310083051455 -15.156302397145154
O 4.045793507959804 15.03010848836917 11.49372866111985
H 3.6404796431015978 15.809041111832403 11.083909193599833
H 3.294223376726089 14.54128494472235 11.861364112775293
O -17.720347577392534 1.3212992614401902 0.136655825929882
H -17.239123805962578 0.4828560169697136 0.2030181986462809
H -17.033023534717984 1.9951382961946624 0.2484080514230378
O -7.602090111985741 9.846527537013024 14.084989629935976
H -8.06494358139685 9.755429962188408 13.238564645300496
H -7.843484965124597 10.73423309634814 14.389405971651726
O 1.9407387746335512 -13.052232108324553 -6.200319466153864
H 2.6136967486642844 -12.439553882978002 -5.8675728444209705
H 2.0747051050684457 -13.048353958641007 -7.160006877014734
O 2.4245077093609955 -9.33494039947282 -9.312161667528317
H 3.1853609068669595 -9.131500704766843 -8.74764235044263
H 1.7812577809127523 -9.729979359827675 -8.704596285323994
O 17.650691786178015 -13.436166159682678 -7.345532194156551
H 17.783654763662234 -14.370610232306426 -7.126209421383463
H 17.056486401889764 -13.457584951812473 -8.110661687070367
O -6.715744568741548 18.07598074003478 4.087262326213946
H -6.586518181127061 18.709960091109586 4.808606959558425
H -7.609776574744151 17.732609640287556 4.234791999166008
O 4.454920777853259 15.527350309913974 2.246264610320164
H 5.05494733895106 16.136150487109656 2.702661178146496
H 5.046344520550987 14.957040439125446 1.7325267859830966