194

C -5.0710522388059704 1.0783507462686561 0.47044029850746183
C -3.8153522388059704 0.1782507462686569 0.19534029850746193
C -4.11845223880597 -1.3219492537313435 0.5608402985074619
C -2.96945223880597 -2.3874492537313436 0.7034402985074619
C -2.52015223880597 0.7359507462686565 0.7384402985074618
C -2.20305223880597 0.7852507462686571 2.097440298507462
C -1.5755522388059702 1.205650746268656 -0.18965970149253808
C -0.9533522388059701 1.2695507462686564 2.508640298507462
H -2.91125223880597 0.4298507462686567 2.840840298507462
C -0.32655223880597006 1.6562507462686575 0.21554029850746192
H -1.7850522388059702 1.178550746268657 -1.2573597014925382
C 0.004447761194029898 1.6956507462686563 1.569740298507462
H -0.7158522388059702 1.2676507462686573 3.5705402985074617
H 0.3943477611940298 1.9193507462686572 -0.5551597014925382
C -1.76045223880597 -2.1592492537313435 -0.1734597014925381
C -0.5287522388059701 -1.936549253731343 0.464840298507462
C -1.8068522388059702 -2.121249253731343 -1.5681597014925381
C 0.6114477611940299 -1.614449253731343 -0.2582597014925381
H -0.4544522388059702 -1.954049253731343 1.5506402985074619
C -0.6479522388059701 -1.8270492537313432 -2.2998597014925384
H -2.74345223880597 -2.290549253731343 -2.092259701492538
C 0.5698477611940298 -1.5506492537313434 -1.6506597014925382
H 1.5072477611940298 -1.351949253731343 0.2991402985074618
H -0.7173522388059701 -1.7640492537313435 -3.3840597014925375
C 1.7791477611940298 -1.082849253731343 -2.4255597014925376
H 1.4739477611940297 -0.9102492537313429 -3.464259701492538
H 2.1252477611940295 -0.1337492537313434 -2.0010597014925384
C 1.3965477611940298 2.0964507462686566 1.997440298507462
H 1.51704776119403 1.8448507462686567 3.057640298507462
H 2.1256477611940294 1.5207507462686571 1.4165402985074618
C 3.94864776119403 -1.4275492537313434 -3.522959701492538
H 4.81734776119403 -2.087049253731343 -3.615159701492538
H 3.4305477611940303 -1.3641492537313429 -4.484459701492538
H 4.26984776119403 -0.441449253731343 -3.176459701492538
C 2.60904776119403 -3.4296492537313434 -2.8992597014925376
H 1.9825477611940296 -3.869549253731343 -2.119359701492538
H 2.06294776119403 -3.373349253731343 -3.845759701492538
H 3.5215477611940305 -4.019849253731343 -3.0234597014925377
C 3.7281477611940304 -2.060049253731343 -1.156659701492538
H 3.9048477611940298 -1.032549253731343 -0.8295597014925382
H 3.12924776119403 -2.623249253731343 -0.4404597014925382
H 4.68244776119403 -2.5769492537313434 -1.3005597014925383
C 3.1110477611940297 3.755250746268656 2.588740298507462
H 3.40124776119403 4.809350746268656 2.534540298507462
H 2.9823477611940303 3.461750746268656 3.634840298507462
H 3.86514776119403 3.1392507462686563 2.091540298507462
C 1.99744776119403 3.9574507462686572 0.40494029850746194
H 2.67914776119403 3.230350746268657 -0.04295970149253803
H 1.03214776119403 3.981150746268657 -0.10175970149253821
H 2.4399477611940297 4.958250746268657 0.368240298507462
C 0.7418477611940297 4.4992507462686575 2.475440298507462
H -0.18475223880597014 4.424250746268656 1.901240298507462
H 0.57844776119403 4.189650746268656 3.511940298507462
H 1.1210477611940297 5.524350746268658 2.4432402985074617
N 3.00114776119403 -2.025349253731343 -2.490159701492538
N 1.7831477611940298 3.586450746268657 1.862540298507462
C -3.55075223880597 -3.8435492537313434 0.6444402985074619
H -2.62515223880597 -2.2736492537313433 1.7424402985074618
H -4.67195223880597 -1.3478492537313436 1.5102402985074619
H -4.83415223880597 -1.6757492537313432 -0.1945597014925382
H -3.7169522388059697 0.17335074626865676 -0.900559701492538
H -3.9132522388059705 -4.043149253731343 -0.34225970149253815
H -4.35435223880597 -3.9354492537313432 1.3449402985074619
H -2.78115223880597 -4.545049253731343 0.8904402985074619
H -5.24235223880597 1.138950746268657 1.5249402985074618
H -5.92805223880597 0.6501507462686567 -0.006059701492538094
H -4.89895223880597 2.059650746268657 0.08004029850746197
C 2.0099455513966586 -0.6325278476835786 2.9796475596967524
O 2.1983021980273505 -0.47949641586951475 4.176676654224941
O 2.736445515030822 -1.2855968798666968 2.221801858948265
O 1.0636705531488664 -0.1579988440200435 2.3408719834782863
O 3.4890606536101356 0.49315336206693616 -8.47598413166417
H 3.665142224311703 1.446015100635098 -8.480124727289128
H 4.15466018857936 0.1295120495435652 -9.079063064454092
O 3.8228363573728803 -7.148713660084274 -1.1549978387499218
H 3.573267823545855 -6.406687035322379 -0.5839642215539652
H 3.4511326452662074 -7.923703552624006 -0.7075730281198291
O -4.763978956630233 2.059165236344856 -4.942405067055674
H -5.169467048905459 1.2108150524820775 -4.708207010994166
H -4.747046288586334 2.0509631187281254 -5.911222879814871
O -7.067556555970669 -4.847241303055788 3.4864825963642048
H -7.044133696151461 -4.158268726484439 2.8055013078763875
H -7.436345227751652 -5.6171120291412135 3.027945874843763
O 4.956250786668585 6.7264872645718325 2.0645884260979814
H 4.680782533096544 7.257454543818782 1.3022510030738568
H 4.186482563769591 6.744621964270346 2.6528825362008863
O 2.4800595843045263 -6.148019046254534 11.405999784404488
H 2.7501578727052554 -6.451810592523679 10.526383408978017
H 2.9634628966706247 -6.728607162073075 12.012795154907394
O 8.481893143505978 -4.170633068704385 4.9053100471176645
H 8.617573628137013 -4.914448799801269 5.511359815010614
H 7.703264117585648 -4.428239245509451 4.3892307489800295
O -3.99078980851324 2.8970777226873965 7.432882046888208
H -3.0557066683453207 2.768759915064323 7.213516101216339
H -3.978264643080843 3.163094794033749 8.364568679980687
O 8.254180173975847 -1.571462993057604 3.308862624372954
H 7.467123270413065 -1.1570651484135452 3.6932884479183126
H 8.937831362963237 -0.888712147121566 3.3825801831344213
O -10.031821474343747 4.817625785254249 5.993623654918071
H -10.617388583406179 4.377589691976931 6.62801056706042
H -10.46552933505247 4.677414951459293 5.138521112560733
O -4.308183242651845 7.8580606725604385 -0.5410709418094806
H -3.6802898859974325 7.314933117084947 -0.04134126683262407
H -4.6387320323074315 7.260759920232924 -1.2287709150726855
O -2.756039702751781 -1.8611317187015446 -5.740757676399811
H -2.498890637304751 -1.8717378737235606 -4.806557898774399
H -2.0029363364001362 -2.2673998946733636 -6.195448156927335
O 0.08293779180089267 -8.042039107158168 2.769369327411504
H 0.017637786378699616 -7.396926201969379 3.489461408850221
H -0.8207162638717196 -8.10000429361185 2.4243891408415665
O -4.914493695765419 -1.044407703310003 -3.58048168270599
H -5.579262233257295 -0.8659489009592953 -4.262539308075331
H -4.884886667205319 -0.22591004247415192 -3.0626526111330614
O 6.791320158949934 -9.745216211815077 3.6322118560083947
H 7.078039764744437 -10.40944197648021 2.9875698172705643
H 7.346667677311829 -9.91654827588982 4.407580414804257
O 8.136590301319504 -2.701428102194101 -6.119434284348552
H 8.008424639850213 -2.966599733402369 -5.196273991591934
H 7.844263702692271 -3.473123659016674 -6.627364468148778
O -4.304563729888197 5.8351791914278754 4.203821243730032
H -4.5414751295091635 5.610374680209192 3.291514673894341
H -4.784853187296733 5.184433567449241 4.737501030001605
O 10.512220492750656 -1.2981337630560623 -1.2001557655785873
H 10.141084921878111 -1.3727743008060376 -0.30816107105540347
H 11.106600050846339 -0.5349581277388231 -1.1432537895486705
O -0.9559696439092938 -5.907267003522965 -6.221416511185952
H -0.5498413866861662 -5.737230569477823 -7.08461683943086
H -1.6868013208170598 -6.51126575502011 -6.42149777597122
O 3.6780663414845858 -2.8397193888572865 7.008185685099293
H 4.509840549458668 -2.653837628602989 7.469235568575966
H 3.685011976677377 -3.8016496410698917 6.891549960169234
C -4.723238353334024 11.332069758171208 15.27334981114281
O -4.372831769423615 11.993113542741735 16.207723718169813
O -5.073644937244433 10.671025973600678 14.338975904115806
O 5.059594011792235 -14.552557027342196 -3.8563908712379185
H 5.434716159966744 -14.972337673273458 -4.645082788370631
H 5.5295619924573405 -13.707370182405072 -3.7951435154191433
O -4.13219415629902 -20.430685647493863 -4.046364653766085
H -4.590109277177591 -20.962406797101174 -4.714611403126714
H -3.193285437572296 -20.55625755598809 -4.250433411776854
O 0.8859995321685634 19.473829444761684 -8.200589596809955
H 0.28973496256021747 19.244284365929637 -8.92911205817526
H 1.7635132094923769 19.486317701832494 -8.611412835983414
O -9.268008477113815 -16.034174628535816 0.8523581014315345
H -9.396023031519551 -15.549272211469702 1.6814837111456145
H -8.791968746627077 -15.408204404120003 0.28622260754077766
O 10.95389439970802 6.033960699295771 -5.121950205671392
H 10.756565940115598 5.885493138878907 -6.058959394227592
H 10.568446647364697 6.9034424124561955 -4.936495292031725
O -7.571193592552009 7.874243159621938 11.27619115942484
H -7.725257149548432 8.2769737147756 12.143969862350442
H -7.1389720525539735 7.031876426641542 11.48250347565841
O 11.102090281024635 -6.816744564657973 -3.404640423817982
H 10.912512748684307 -6.732464521106525 -4.351173355305693
H 10.432920252627813 -7.441267642281005 -3.0866084397162954
O 7.4864263143641665 13.771467995552005 4.901860371708599
H 6.950939397130504 13.004309224470497 4.649494489853897
H 8.105334235434425 13.87786507620546 4.163893847559357
O -2.495186263948817 13.619025167385768 13.203589050517992
H -1.7068129245808468 13.99451154023459 13.62364240246109
H -2.1400930750496165 12.973025477266004 12.574657280082942
O 11.526890645745016 -11.421959007017433 0.026254517588283566
H 11.523542295826225 -12.141237990442436 -0.6230481001916814
H 12.145194044756316 -11.72498039572281 0.7080469266529046
O -2.333953216947309 -0.20100061655013768 18.052274998364027
H -2.0004409506552783 0.49632652251983966 17.46791912541567
H -2.9158584830575327 -0.7256977981139707 17.4821512633449
O -10.94171554019309 1.7893028271192284 -8.65646316808071
H -11.266441991302539 2.0240323154995172 -7.7741808118394715
H -10.287645331559956 1.0944970442587598 -8.48794304885971
O -18.7573079237213 3.193301432772785 5.677396430653571
H -18.37826266090196 3.9672572545850633 5.234356442032793
H -19.709018260277816 3.3749208951295926 5.692354722157113
O -8.68020789206632 -19.80130379805077 11.599754178334445
H -8.60361958425938 -19.79540858695943 12.565708025313409
H -8.101676199062556 -19.078122028531503 11.314673220139797
O -5.353256311645332 10.11605171863434 -5.362462988626504
H -5.220147095687771 10.010473099483148 -4.408470091008658
H -4.661497029680495 10.740658980555681 -5.627598441688927
O -6.724577538008929 15.034784847476361 0.5214272164409681
H -6.737131891417176 14.683941842108638 1.4245988118175312
H -6.837922727744889 14.250316171040076 -0.03599874990256846
O 8.84584908235567 17.206152812362113 2.825749026330632
H 8.979800805828305 17.176297458923756 1.866513418906792
H 8.686814368654641 16.281697286968026 3.068754963925539
O 11.081285713425576 0.5631089123322166 13.921158001650822
H 11.180097237732026 0.45836789060145744 12.962913274072822
H 11.939197900928042 0.9101767980363293 14.20837308751438
O 22.062624193815587 4.9286970609752725 -1.6206718093354757
H 22.48315331797962 5.228645167950681 -0.8008219781153292
H 22.80818039316585 4.711535860232891 -2.200282808888207
O 6.484796823069638 -12.68606382740168 -0.3317019956340632
H 6.877962120237718 -11.805929635295104 -0.23294871777637738
H 6.827601879252967 -13.182007603111165 0.4269062096274969