194

C -5.0710522388059704 1.0783507462686561 0.47044029850746183
C -3.8153522388059704 0.1782507462686569 0.19534029850746193
C -4.11845223880597 -1.3219492537313435 0.5608402985074619
C -2.96945223880597 -2.3874492537313436 0.7034402985074619
C -2.52015223880597 0.7359507462686565 0.7384402985074618
C -2.20305223880597 0.7852507462686571 2.097440298507462
C -1.5755522388059702 1.205650746268656 -0.18965970149253808
C -0.9533522388059701 1.2695507462686564 2.508640298507462
H -2.91125223880597 0.4298507462686567 2.840840298507462
C -0.32655223880597006 1.6562507462686575 0.21554029850746192
H -1.7850522388059702 1.178550746268657 -1.2573597014925382
C 0.004447761194029898 1.6956507462686563 1.569740298507462
H -0.7158522388059702 1.2676507462686573 3.5705402985074617
H 0.3943477611940298 1.9193507462686572 -0.5551597014925382
C -1.76045223880597 -2.1592492537313435 -0.1734597014925381
C -0.5287522388059701 -1.936549253731343 0.464840298507462
C -1.8068522388059702 -2.121249253731343 -1.5681597014925381
C 0.6114477611940299 -1.614449253731343 -0.2582597014925381
H -0.4544522388059702 -1.954049253731343 1.5506402985074619
C -0.6479522388059701 -1.8270492537313432 -2.2998597014925384
H -2.74345223880597 -2.290549253731343 -2.092259701492538
C 0.5698477611940298 -1.5506492537313434 -1.6506597014925382
H 1.5072477611940298 -1.351949253731343 0.2991402985074618
H -0.7173522388059701 -1.7640492537313435 -3.3840597014925375
C 1.7791477611940298 -1.082849253731343 -2.4255597014925376
H 1.4739477611940297 -0.9102492537313429 -3.464259701492538
H 2.1252477611940295 -0.1337492537313434 -2.0010597014925384
C 1.3965477611940298 2.0964507462686566 1.997440298507462
H 1.51704776119403 1.8448507462686567 3.057640298507462
H 2.1256477611940294 1.5207507462686571 1.4165402985074618
C 3.94864776119403 -1.4275492537313434 -3.522959701492538
H 4.81734776119403 -2.087049253731343 -3.615159701492538
H 3.4305477611940303 -1.3641492537313429 -4.484459701492538
H 4.26984776119403 -0.441449253731343 -3.176459701492538
C 2.60904776119403 -3.4296492537313434 -2.8992597014925376
H 1.9825477611940296 -3.869549253731343 -2.119359701492538
H 2.06294776119403 -3.373349253731343 -3.845759701492538
H 3.5215477611940305 -4.019849253731343 -3.0234597014925377
C 3.7281477611940304 -2.060049253731343 -1.156659701492538
H 3.9048477611940298 -1.032549253731343 -0.8295597014925382
H 3.12924776119403 -2.623249253731343 -0.4404597014925382
H 4.68244776119403 -2.5769492537313434 -1.3005597014925383
C 3.1110477611940297 3.755250746268656 2.588740298507462
H 3.40124776119403 4.809350746268656 2.534540298507462
H 2.9823477611940303 3.461750746268656 3.634840298507462
H 3.86514776119403 3.1392507462686563 2.091540298507462
C 1.99744776119403 3.9574507462686572 0.40494029850746194
H 2.67914776119403 3.230350746268657 -0.04295970149253803
H 1.03214776119403 3.981150746268657 -0.10175970149253821
H 2.4399477611940297 4.958250746268657 0.368240298507462
C 0.7418477611940297 4.4992507462686575 2.475440298507462
H -0.18475223880597014 4.424250746268656 1.901240298507462
H 0.57844776119403 4.189650746268656 3.511940298507462
H 1.1210477611940297 5.524350746268658 2.4432402985074617
N 3.00114776119403 -2.025349253731343 -2.490159701492538
N 1.7831477611940298 3.586450746268657 1.862540298507462
C -3.55075223880597 -3.8435492537313434 0.6444402985074619
H -2.62515223880597 -2.2736492537313433 1.7424402985074618
H -4.67195223880597 -1.3478492537313436 1.5102402985074619
H -4.83415223880597 -1.6757492537313432 -0.1945597014925382
H -3.7169522388059697 0.17335074626865676 -0.900559701492538
H -3.9132522388059705 -4.043149253731343 -0.34225970149253815
H -4.35435223880597 -3.9354492537313432 1.3449402985074619
H -2.78115223880597 -4.545049253731343 0.8904402985074619
H -5.24235223880597 1.138950746268657 1.5249402985074618
H -5.92805223880597 0.6501507462686567 -0.006059701492538094
H -4.89895223880597 2.059650746268657 0.08004029850746197
C -0.3959704864418323 3.6212239129102737 -3.008025419459596
O 0.36907535025542626 4.07025873741231 -3.847577736314606
O -1.5365060492672802 3.201491596406998 -3.2352585079683625
O -0.14803500583364282 3.517051407806164 -1.8012427252532524
O 4.362406478109789 1.2122130261364097 -9.613412892879861
H 3.8417095602973657 0.5518993808897772 -9.131927725318338
H 4.89893148367253 0.6863416861447309 -10.225427759105557
O -0.972789561200659 -2.381152874875225 7.083765684488508
H -0.22917256617867032 -2.7989637126566587 7.543586546832579
H -0.6778880157619867 -1.4690024364218748 6.9424270824463115
O -3.0078012064244275 1.805602532278106 -9.57712637214527
H -2.439992967983444 2.151403752493279 -10.282096355446862
H -3.5088285655856355 2.579684618545764 -9.279249798055504
O 10.144843143714512 2.4846277096279388 3.4026197089823924
H 10.735414776601743 2.16247303889192 4.100049900078162
H 9.695015730202527 3.241223190753317 3.807811663855356
O 10.214885458934743 -4.744182871615143 0.12715643185260114
H 10.273521175922976 -4.773585695104048 1.0939370085938578
H 10.773237988226082 -3.991252635560259 -0.11840508176120262
O 5.361457447744138 4.674017473461211 -11.101380973124588
H 5.688796837692829 4.027660765172794 -10.45792212724664
H 4.715309149639966 5.19522955589224 -10.601588730002518
O 3.594775339499876 -7.334397220044741 -0.872879808699135
H 4.457781626662779 -7.1329997494421535 -1.2648320558571038
H 3.80314876780288 -7.942813120358056 -0.14805393242043108
O 4.3495253799935965 3.3289002105541234 -1.822839499318408
H 4.746315841854464 4.0004603056560315 -1.247920613785018
H 4.737467617829495 3.506731569215221 -2.6928043102617147
O 6.0468210083548275 0.6461624750596882 1.0109770350447589
H 6.034360795463377 0.6761824004883636 1.9794350383014607
H 6.556458054059768 1.4308598171614502 0.759020476797966
O -8.09778265345704 -1.0415672722526264 2.7499742783136916
H -8.109938515628434 -1.1249244169585049 1.7846395289436328
H -7.263837649325312 -1.460578870773824 3.010602278897743
O 4.475944262750896 7.00483604067372 -2.751166991781904
H 4.578620100068727 7.652277487050941 -2.037553228711113
H 5.224983348127875 7.183920361769581 -3.3392411357597296
O 8.412837356526843 4.840048066171491 0.5395867058102675
H 8.097185470320714 4.857251443834732 -0.37640198813278003
H 9.070251778703994 4.128213040843491 0.5472755633175694
O 3.5202397387352162 3.181588658863341 10.140967603616499
H 3.0338526218028417 2.774756132989233 10.873690078550293
H 3.9620636262685265 2.434600576011265 9.709965978582519
O -0.5426751069002558 7.471606862673707 -6.130397439642535
H -1.3419624771025882 7.107628416060781 -6.539819895226353
H -0.443738495209129 8.342421325687484 -6.543744342586183
O 6.254136548769713 -1.7161482152100787 -6.116127545221615
H 6.088546721047925 -1.4064560499961227 -5.213000683335555
H 5.931147321048999 -0.9930177084933913 -6.6744483968222355
O 2.8659159412902175 -4.425885683121569 3.438064361532892
H 2.931747605429978 -5.298054840247368 3.8551429036026845
H 1.911913562150613 -4.269380513181193 3.3721285087826023
O 2.2693415106415613 -4.998304072391878 9.73805646204455
H 2.4661499411048626 -5.499027479407584 8.932134711335985
H 1.5362749403685583 -5.485573526853418 10.143203134987733
O 3.8159673318545386 -1.0345519053473287 1.9359615597093542
H 3.148293880519051 -0.9708392876806009 2.6353328642621023
H 3.9377338743443415 -0.11849390230167023 1.6444609791163158
O 1.8788800334879894 1.5378695701626066 8.930949846175704
H 1.256475297703835 1.6252285926087757 9.668478220525266
H 1.9777870056342624 0.5802991710173608 8.820323059900089
O 0.6483736032296821 8.553442782475338 5.15315822781201
H 0.6620231902687961 8.73317589071582 6.10524911395465
H -0.26236702502491216 8.270579379568092 4.9813974999311625
C -12.631394660609786 -1.0257886297166843 5.137667429394639
O -12.422162979860099 -2.202003814829362 5.063114096933839
O -12.840626341359473 0.1504265553959929 5.2122207618554395
O -10.169987153394093 0.9525084585210919 11.823545735222126
H -10.93028236317583 1.493335614305728 11.561964890264312
H -10.003050239919105 1.212092392268553 12.74208272008427
O 5.663549310973282 11.993754931491033 12.388959197426004
H 6.240042206132615 12.137388372739768 11.623457575425205
H 4.775655441673046 12.188078545655902 12.053035464806591
O 0.8031963470939312 16.682524173315695 -14.11716334766763
H 0.4875808059727529 16.723299164039677 -15.03241827785607
H 0.03588266485423208 16.956356848538896 -13.592561285788475
O 1.0078769336782134 11.399234121038964 10.643391863355633
H 1.5265641872904998 11.468634355422557 9.827846342058603
H 1.3881087428592354 12.077958198864145 11.22107632893116
O 5.061964400348143 16.254925968960563 -3.710386723312087
H 4.372501932184616 15.605641339808415 -3.9154192383935205
H 5.368839833926681 15.999557600117763 -2.827450480562617
O 0.02741009805670197 -1.2291632475001233 -15.234710517351395
H 0.007363996216628921 -1.1903737501508154 -14.266691465061408
H -0.3379352351497649 -0.3751937207138023 -15.510791627035857
O -0.4837576179875358 4.083826736553991 9.530403414135046
H -1.1218671424928999 3.980550642917832 10.252288197267918
H 0.363634555019416 3.8361621742982432 9.929841411863386
O 3.498410916862463 -11.607138953530441 11.15990163577581
H 2.6437344676164436 -11.293821773657076 10.827745243694583
H 3.272580663404553 -12.087792268479426 11.970416923572216
O -3.357819968843984 -11.952578741546809 -7.085268611746512
H -3.8559697479783805 -11.752121887977452 -6.278651475612257
H -3.597082621827905 -12.869811730197247 -7.286263566206763
O -13.8777410184919 -10.141634589127364 0.15615238580922686
H -14.115929880387164 -10.5472190719468 -0.6910398298450069
H -14.56006707503804 -10.457983081489012 0.7671488900862187
O 16.627971583561145 12.323463568771587 -7.131003073580904
H 17.427754644938386 12.048228524276787 -7.603824479521874
H 16.845723748543335 12.17764989119854 -6.198112774361219
O 8.658818307005959 -1.5287776258323897 10.343862398236801
H 8.922784271735193 -2.180292047013079 11.01080938665354
H 7.691093404966064 -1.5222955553512632 10.39314161326865
O 14.018298318001369 -11.12802804266199 16.834127508305645
H 13.669673682676656 -11.512927601830604 16.016031823256203
H 13.590942894875187 -11.64231673971239 17.535438012084708
O -2.6069394189704376 -7.754948213884114 1.4838047543746384
H -1.8564763784644942 -8.341039223366106 1.6634430307495696
H -3.1203537338764464 -7.7735549489586155 2.3054016597725724
O -13.991344889749472 12.422261439174326 -4.7718089228504414
H -13.289344698347145 11.99641192280027 -5.28641098034252
H -13.687941201997385 13.337375056217342 -4.674468209575457
O -3.434551825314429 -0.6948408911957267 -14.591038392741716
H -3.570672916177808 -0.1940733713433236 -15.409372246729829
H -3.7315717803227244 -0.09022162124715916 -13.894492178170328
O 6.313763060030552 -5.182831089983106 1.8897379177571882
H 6.330348752555631 -5.338355165924725 0.9334406138260465
H 7.249889629753916 -5.150949649361553 2.1379566992823995
O 11.172278545033514 2.158141932981785 -3.98177518944343
H 11.090392964345483 2.3029278571519365 -4.936395084866514
H 12.033291981144586 2.5432077765792718 -3.759644364858545
O -7.705150460132229 -6.252701895318962 -13.076407261870894
H -6.832375172902778 -6.234726130364365 -12.655803497294484
H -8.208861665329565 -5.576220138343441 -12.599322994117324
O -8.723182842718435 -11.909431558821911 11.933689811686516
H -8.098966991360964 -11.252707169189556 12.27725203876638
H -8.15655419045149 -12.572533946134406 11.511565258182918