194

C -5.0710522388059704 1.0783507462686561 0.47044029850746183
C -3.8153522388059704 0.1782507462686569 0.19534029850746193
C -4.11845223880597 -1.3219492537313435 0.5608402985074619
C -2.96945223880597 -2.3874492537313436 0.7034402985074619
C -2.52015223880597 0.7359507462686565 0.7384402985074618
C -2.20305223880597 0.7852507462686571 2.097440298507462
C -1.5755522388059702 1.205650746268656 -0.18965970149253808
C -0.9533522388059701 1.2695507462686564 2.508640298507462
H -2.91125223880597 0.4298507462686567 2.840840298507462
C -0.32655223880597006 1.6562507462686575 0.21554029850746192
H -1.7850522388059702 1.178550746268657 -1.2573597014925382
C 0.004447761194029898 1.6956507462686563 1.569740298507462
H -0.7158522388059702 1.2676507462686573 3.5705402985074617
H 0.3943477611940298 1.9193507462686572 -0.5551597014925382
C -1.76045223880597 -2.1592492537313435 -0.1734597014925381
C -0.5287522388059701 -1.936549253731343 0.464840298507462
C -1.8068522388059702 -2.121249253731343 -1.5681597014925381
C 0.6114477611940299 -1.614449253731343 -0.2582597014925381
H -0.4544522388059702 -1.954049253731343 1.5506402985074619
C -0.6479522388059701 -1.8270492537313432 -2.2998597014925384
H -2.74345223880597 -2.290549253731343 -2.092259701492538
C 0.5698477611940298 -1.5506492537313434 -1.6506597014925382
H 1.5072477611940298 -1.351949253731343 0.2991402985074618
H -0.7173522388059701 -1.7640492537313435 -3.3840597014925375
C 1.7791477611940298 -1.082849253731343 -2.4255597014925376
H 1.4739477611940297 -0.9102492537313429 -3.464259701492538
H 2.1252477611940295 -0.1337492537313434 -2.0010597014925384
C 1.3965477611940298 2.0964507462686566 1.997440298507462
H 1.51704776119403 1.8448507462686567 3.057640298507462
H 2.1256477611940294 1.5207507462686571 1.4165402985074618
C 3.94864776119403 -1.4275492537313434 -3.522959701492538
H 4.81734776119403 -2.087049253731343 -3.615159701492538
H 3.4305477611940303 -1.3641492537313429 -4.484459701492538
H 4.26984776119403 -0.441449253731343 -3.176459701492538
C 2.60904776119403 -3.4296492537313434 -2.8992597014925376
H 1.9825477611940296 -3.869549253731343 -2.119359701492538
H 2.06294776119403 -3.373349253731343 -3.845759701492538
H 3.5215477611940305 -4.019849253731343 -3.0234597014925377
C 3.7281477611940304 -2.060049253731343 -1.156659701492538
H 3.9048477611940298 -1.032549253731343 -0.8295597014925382
H 3.12924776119403 -2.623249253731343 -0.4404597014925382
H 4.68244776119403 -2.5769492537313434 -1.3005597014925383
C 3.1110477611940297 3.755250746268656 2.588740298507462
H 3.40124776119403 4.809350746268656 2.534540298507462
H 2.9823477611940303 3.461750746268656 3.634840298507462
H 3.86514776119403 3.1392507462686563 2.091540298507462
C 1.99744776119403 3.9574507462686572 0.40494029850746194
H 2.67914776119403 3.230350746268657 -0.04295970149253803
H 1.03214776119403 3.981150746268657 -0.10175970149253821
H 2.4399477611940297 4.958250746268657 0.368240298507462
C 0.7418477611940297 4.4992507462686575 2.475440298507462
H -0.18475223880597014 4.424250746268656 1.901240298507462
H 0.57844776119403 4.189650746268656 3.511940298507462
H 1.1210477611940297 5.524350746268658 2.4432402985074617
N 3.00114776119403 -2.025349253731343 -2.490159701492538
N 1.7831477611940298 3.586450746268657 1.862540298507462
C -3.55075223880597 -3.8435492537313434 0.6444402985074619
H -2.62515223880597 -2.2736492537313433 1.7424402985074618
H -4.67195223880597 -1.3478492537313436 1.5102402985074619
H -4.83415223880597 -1.6757492537313432 -0.1945597014925382
H -3.7169522388059697 0.17335074626865676 -0.900559701492538
H -3.9132522388059705 -4.043149253731343 -0.34225970149253815
H -4.35435223880597 -3.9354492537313432 1.3449402985074619
H -2.78115223880597 -4.545049253731343 0.8904402985074619
H -5.24235223880597 1.138950746268657 1.5249402985074618
H -5.92805223880597 0.6501507462686567 -0.006059701492538094
H -4.89895223880597 2.059650746268657 0.08004029850746197
C -3.1884659989699786 1.3882318113778418 -3.2119455457669615
O -3.4261785575831665 1.8648713205014518 -4.311073844201668
O -3.621998131007034 1.8219005165637225 -2.1383474791080244
O -2.4775770077074184 0.3984385811473208 -3.003152375640323
O -2.13734044168271 -1.1935149756249976 4.5440762892602855
H -2.6791235154933304 -1.6588597358824906 5.198975298217555
H -1.3000518416144051 -1.0328264268207692 5.004607433461033
O 3.4763397831991614 -5.2009827410642195 4.125500986410827
H 2.8409919410567572 -5.931438023029825 4.08384096440484
H 3.339858717718016 -4.724294996818706 3.292972513893968
O -0.8460748608980428 -4.593966983873239 4.931685597320327
H -0.7413382433494748 -4.529272092809855 3.9705341165875634
H 0.04412365275394481 -4.4266120509892195 5.275925160751345
O 8.175170703360017 1.687974109225576 2.738030714610896
H 7.844734266397444 0.8280568003229405 3.0385658038719185
H 7.535873809611515 2.3223427259352594 3.0955749553383325
O -9.039744389610606 5.16691870967471 0.28114747274002494
H -9.308177135919564 5.253899886263407 -0.6458614228636139
H -9.314036350137487 4.269030467237491 0.5209861034551866
O 5.158306041830778 -10.83011903369531 -0.5449146521371837
H 5.361102318978211 -10.04099874318839 -1.0694431966277733
H 5.361474177526613 -10.565103325617486 0.36472886452738607
O 4.17286576911464 -8.481949238736771 -2.6913032532749632
H 4.4867588784274215 -7.925136406572328 -1.9630190074183294
H 3.207770828016763 -8.411147752229486 -2.6408964236222157
O 0.5834458369424846 -9.015502150307675 1.5831119405977807
H 0.7120613475769928 -9.206917692882076 2.524273721263131
H 0.1879841678046057 -8.13089905760027 1.5760847850441415
O -8.96776469974511 -6.704233334296233 3.232524788143336
H -9.227864424637104 -6.835016784306814 2.30828933155533
H -8.340937971839864 -5.966132148654429 3.1970728878027
O 1.2634171249339192 -6.8595973718391505 -5.078531206427591
H 1.8845790649313723 -7.486159583928628 -4.6778505410840525
H 0.8398436768055961 -7.3695159354456345 -5.785305949065004
O -6.166029854407416 0.14165984647599483 5.23694183715687
H -6.570485281299966 1.0038750229911302 5.41573824076763
H -6.4520400411183765 -0.06857867478972679 4.335298957978221
O 2.2416643305447885 7.283579274829088 -2.1484348085108733
H 2.405680817791972 6.934116806657264 -1.2596480330971347
H 3.0511171788659857 7.070660906116279 -2.63671116356954
O 10.278428248067364 -2.801241251156812 7.052703856356043
H 10.587305807532749 -2.104092971463858 7.650655598790049
H 9.464693463552805 -3.1230396136666436 7.468929106259311
O 7.032098870212564 -4.161916466968731 1.2331835298016847
H 7.35889287190852 -3.5423439299237316 1.9027377910047396
H 6.186461124493836 -4.4700013323454035 1.5922691227201191
O -7.214907308446975 -2.9264513857822174 2.3115996554657836
H -7.858039338118648 -3.3189867805784994 1.7022848656054679
H -6.834302312984501 -2.1910452768034774 1.8083307048978416
O -5.580839481386338 -8.564054240671998 -6.2344123323003355
H -6.395256467044791 -9.068059033599157 -6.08719990389344
H -5.2563716928045485 -8.887729917038303 -7.088178491738422
O 4.447975728149981 4.079719760744605 5.213982810247499
H 4.69610312691095 4.044562819315294 6.150019209301217
H 4.916613079087627 4.85790282018679 4.876681604196667
O 1.4583939283331575 5.3901556746886925 7.621813898436516
H 1.351248576764714 5.510403483627001 6.666289071452511
H 0.9526922511974432 6.121044208060673 8.007857561546638
O 0.33127584693670736 5.613959242491165 -3.6720406797214045
H 1.1838095937630604 6.063068131543795 -3.5697920944200225
H 0.22395984926952922 5.123920747797483 -2.84300057534584
O 6.333985195494789 -8.057698713162127 0.8282639320506682
H 6.3517802522194975 -8.133097019779104 1.7941654737284205
H 5.41623817403151 -8.262623117942129 0.5943657977681531
C -18.419159779562758 3.0771144952814327 11.716053917504244
O -17.25565300260418 3.078631345357689 11.997244131482802
O -19.58266655652134 3.0755976452051756 11.43486370352569
O -6.489930331832977 5.355670675822061 -7.257953847336845
H -5.597883330024872 5.0707464460821114 -7.507027504659866
H -6.656489986109487 4.897938258009848 -6.420277979503066
O -11.848038698839407 7.668719214829071 -0.6929473848902958
H -12.808729948392028 7.602303915525841 -0.585110990516728
H -11.647337696190077 8.583620704204538 -0.4446807609270538
O -2.365045158153571 -7.779687450727923 8.409901072675703
H -1.6125431996610298 -8.364382900706884 8.585512547639022
H -2.375683116253041 -7.695394599285965 7.444632460659723
O 5.814511036472693 13.499415037650488 -2.645380854364377
H 6.117265576432365 14.405983501490013 -2.4858795509043317
H 5.616232833661912 13.482305063696575 -3.593724118895434
O -12.899625209371319 3.864035084671296 -16.134853386550876
H -12.271960445952914 4.357576519590751 -16.683871741144387
H -13.650967935921136 3.703237237010641 -16.72526858261919
O 9.364336386348008 -9.078424810019872 -9.335562391313774
H 10.080319733015381 -9.18735216952967 -9.979355863279133
H 8.937633118404468 -9.948061078806663 -9.310682169512399
O 6.905650653622129 -14.172638022096745 2.9754706117504095
H 6.757961118570556 -13.267101263224394 2.6637682914715795
H 7.252655422323317 -14.057605696819268 3.8728652846451688
O 11.235151034950649 -6.544474456061087 6.251277213427862
H 11.1969938350192 -6.553246021551347 5.283065230114165
H 12.109758304967405 -6.90886662589719 6.4543594974803415
O 17.377412897518273 8.098383531405506 1.057873645922267
H 18.163550533329673 7.9229801264314235 1.5965652274272668
H 17.23971797608286 9.053240569279254 1.148703652714453
O 14.166045833625873 9.289059374404896 -7.042823737325534
H 14.378643897509084 10.200087502325983 -7.295404754564968
H 13.637746097242353 8.957759120877444 -7.7845119972095285
O -10.442186172192859 -2.7198503979438993 17.004463528969282
H -10.276223428293303 -2.5461758570952417 17.943218490819465
H -9.562432503807033 -2.9008337921852196 16.64081474474118
O -12.162408859531205 -5.7618589678830485 15.590644527551355
H -12.16761242413205 -5.811364760380417 16.558368380892098
H -12.705182305056882 -4.983810625389754 15.393161090586066
O 10.430224897112376 1.3277702779399019 -5.6406506274826995
H 10.393680182791329 1.2701717502079197 -6.607249950034864
H 11.21844487856947 0.8156390542799657 -5.405293845374444
O -2.6356980367966223 -9.229593506477906 3.5793171202505087
H -2.7852820860722787 -8.646944321090748 2.8196383092586648
H -2.8658596269756837 -10.110468872435987 3.2475850350455024
O 4.244363006732258 -3.633956239479258 11.579190366052236
H 4.401528999495834 -4.26791239326845 12.294987685613755
H 3.301520245526668 -3.735123380359342 11.37975445767973
O 11.072037970261132 13.784858320204993 -4.499208940871203
H 10.773252896900802 14.094662202919988 -3.631040529160792
H 10.39096807880433 13.150323443391507 -4.768413765044755
O -9.137765983795598 12.583265790382715 7.2617798339858295
H -8.89103008854794 13.08478659949082 8.053338822898144
H -8.417039162004121 11.944362572003545 7.155396234708994
O 3.002908377140274 11.013197393892373 -0.9572926711865334
H 3.513122482973065 11.815042349376109 -1.1462201452990386
H 2.1779582948574627 11.139225834704558 -1.4497722526394414
O -2.47174808459243 -21.784644154221066 -0.6476459657251152
H -2.072041201610018 -21.225560160457626 0.03545494374142022
H -3.3322988579186683 -22.029622095746447 -0.2756243010419952
O -6.807957389905174 -13.374055487810585 8.285311549332965
H -6.710402515079531 -13.591709044786196 7.346121828119184
H -7.289704544179178 -12.533299811730013 8.281917910106307