194

C -5.0710522388059704 1.0783507462686561 0.47044029850746183
C -3.8153522388059704 0.1782507462686569 0.19534029850746193
C -4.11845223880597 -1.3219492537313435 0.5608402985074619
C -2.96945223880597 -2.3874492537313436 0.7034402985074619
C -2.52015223880597 0.7359507462686565 0.7384402985074618
C -2.20305223880597 0.7852507462686571 2.097440298507462
C -1.5755522388059702 1.205650746268656 -0.18965970149253808
C -0.9533522388059701 1.2695507462686564 2.508640298507462
H -2.91125223880597 0.4298507462686567 2.840840298507462
C -0.32655223880597006 1.6562507462686575 0.21554029850746192
H -1.7850522388059702 1.178550746268657 -1.2573597014925382
C 0.004447761194029898 1.6956507462686563 1.569740298507462
H -0.7158522388059702 1.2676507462686573 3.5705402985074617
H 0.3943477611940298 1.9193507462686572 -0.5551597014925382
C -1.76045223880597 -2.1592492537313435 -0.1734597014925381
C -0.5287522388059701 -1.936549253731343 0.464840298507462
C -1.8068522388059702 -2.121249253731343 -1.5681597014925381
C 0.6114477611940299 -1.614449253731343 -0.2582597014925381
H -0.4544522388059702 -1.954049253731343 1.5506402985074619
C -0.6479522388059701 -1.8270492537313432 -2.2998597014925384
H -2.74345223880597 -2.290549253731343 -2.092259701492538
C 0.5698477611940298 -1.5506492537313434 -1.6506597014925382
H 1.5072477611940298 -1.351949253731343 0.2991402985074618
H -0.7173522388059701 -1.7640492537313435 -3.3840597014925375
C 1.7791477611940298 -1.082849253731343 -2.4255597014925376
H 1.4739477611940297 -0.9102492537313429 -3.464259701492538
H 2.1252477611940295 -0.1337492537313434 -2.0010597014925384
C 1.3965477611940298 2.0964507462686566 1.997440298507462
H 1.51704776119403 1.8448507462686567 3.057640298507462
H 2.1256477611940294 1.5207507462686571 1.4165402985074618
C 3.94864776119403 -1.4275492537313434 -3.522959701492538
H 4.81734776119403 -2.087049253731343 -3.615159701492538
H 3.4305477611940303 -1.3641492537313429 -4.484459701492538
H 4.26984776119403 -0.441449253731343 -3.176459701492538
C 2.60904776119403 -3.4296492537313434 -2.8992597014925376
H 1.9825477611940296 -3.869549253731343 -2.119359701492538
H 2.06294776119403 -3.373349253731343 -3.845759701492538
H 3.5215477611940305 -4.019849253731343 -3.0234597014925377
C 3.7281477611940304 -2.060049253731343 -1.156659701492538
H 3.9048477611940298 -1.032549253731343 -0.8295597014925382
H 3.12924776119403 -2.623249253731343 -0.4404597014925382
H 4.68244776119403 -2.5769492537313434 -1.3005597014925383
C 3.1110477611940297 3.755250746268656 2.588740298507462
H 3.40124776119403 4.809350746268656 2.534540298507462
H 2.9823477611940303 3.461750746268656 3.634840298507462
H 3.86514776119403 3.1392507462686563 2.091540298507462
C 1.99744776119403 3.9574507462686572 0.40494029850746194
H 2.67914776119403 3.230350746268657 -0.04295970149253803
H 1.03214776119403 3.981150746268657 -0.10175970149253821
H 2.4399477611940297 4.958250746268657 0.368240298507462
C 0.7418477611940297 4.4992507462686575 2.475440298507462
H -0.18475223880597014 4.424250746268656 1.901240298507462
H 0.57844776119403 4.189650746268656 3.511940298507462
H 1.1210477611940297 5.524350746268658 2.4432402985074617
N 3.00114776119403 -2.025349253731343 -2.490159701492538
N 1.7831477611940298 3.586450746268657 1.862540298507462
C -3.55075223880597 -3.8435492537313434 0.6444402985074619
H -2.62515223880597 -2.2736492537313433 1.7424402985074618
H -4.67195223880597 -1.3478492537313436 1.5102402985074619
H -4.83415223880597 -1.6757492537313432 -0.1945597014925382
H -3.7169522388059697 0.17335074626865676 -0.900559701492538
H -3.9132522388059705 -4.043149253731343 -0.34225970149253815
H -4.35435223880597 -3.9354492537313432 1.3449402985074619
H -2.78115223880597 -4.545049253731343 0.8904402985074619
H -5.24235223880597 1.138950746268657 1.5249402985074618
H -5.92805223880597 0.6501507462686567 -0.006059701492538094
H -4.89895223880597 2.059650746268657 0.08004029850746197
C 3.7295741100719697 0.3487650606552166 2.0256510231597877
O 3.521502889385946 0.7909683591332985 3.1449982027860783
O 4.590991116441161 0.7664848660166377 1.2432813091199635
O 3.110911799499783 -0.58490064836686 1.5020350630575512
O 5.251724440457915 -2.0589115288770374 5.905360717269125
H 5.0940519184413855 -2.9397101231055958 5.533472872474563
H 4.5453281447916405 -1.9513083992417213 6.55987411228992
O 4.874012901352522 -7.397137160276279 -2.807499163458482
H 5.5014129301962855 -7.733818137361477 -2.150245422217093
H 4.092453213393226 -7.958632595055354 -2.6941445200634173
O -2.141044764132714 -9.923625007297927 1.2854800072951567
H -2.507803156685604 -9.04600100406882 1.4704982424724993
H -2.855211800718193 -10.531755828574818 1.528593750978661
O 0.027818513163530928 1.5445282039677877 7.523067431182434
H -0.9240485560638008 1.618224786502071 7.357280661072939
H 0.14119437413647049 0.6343294986548107 7.835551311239029
O -1.3800068116247313 1.2896207691700479 -7.111771295177152
H -1.3852606565179406 1.1219486680858273 -6.157399344346743
H -1.6516447417683127 0.44411863347589664 -7.499457918294252
O 2.0319020527124554 9.752544756217553 5.802971334537807
H 1.9655541884189813 9.765700960574033 4.836331674638305
H 1.8340919460454126 10.66463555877996 6.0635926573059935
O -6.445324853559331 0.8745702994977702 4.212716361205819
H -7.316497962373887 0.45308977389629446 4.261490718373145
H -6.358107459353046 1.1245400572332962 3.280584294025687
O -2.3966007115096515 3.3860448543794406 -4.953117882408317
H -3.0769952414156196 4.067680860026635 -5.059902695838764
H -2.7843911467496105 2.765784242679808 -4.317620206401236
O -8.807297589998877 0.7838929508360989 -1.0868820019397583
H -9.609192067382061 1.3183553889253223 -0.9854793081191637
H -8.306759266161164 0.9565576260229182 -0.2753339499968294
O 0.6452830808041576 -5.501084580056581 -0.0017335905090241077
H 1.3605512593741107 -5.864379048697425 0.5417513850700526
H 0.6691901338938073 -4.550526644231092 0.1848944024388571
O 6.327676092921568 -2.973883715662061 1.9647821911770886
H 6.637556029529467 -2.897856634939414 2.879747581115243
H 6.322132404893079 -2.059945962209481 1.642836551919322
O 0.8447505039283572 -8.104016660495843 -2.6392262822962094
H 0.6805326111949572 -7.709185261215966 -3.508770994630715
H 0.057010323649391736 -8.643800927807256 -2.4747261381104275
O 3.600575003437111 -0.3951506626844858 -7.7119660538054955
H 3.4187123441992426 -0.18435639251146224 -8.640114267043637
H 2.8484741185161386 -0.9447573591677723 -7.445060298187865
O -2.1679414352191984 -3.6675310982488787 -9.332476469841657
H -2.2258337654123324 -2.8115657514723624 -8.88198877841983
H -2.6188643700012917 -4.2793465073388015 -8.731383834395478
O 4.507911139005926 1.3612703267742887 -7.262320915307623
H 4.666573427014138 1.3863908461927013 -8.217916329051407
H 5.3972038858135365 1.3501744842137682 -6.877616825060007
O -6.794434194371449 3.364857301140632 4.828017274681988
H -6.542113059998462 3.996470562805598 5.518210066398675
H -7.144787192958962 3.9224822424748584 4.117194409628578
O 2.038459513239355 -6.157096512038606 -6.575228019187151
H 2.0612769993915467 -6.138097875535468 -7.5437762993656445
H 2.212472308962613 -5.2389443866846 -6.318950501771954
O 0.433243405742481 6.4407525529146294 11.806337769187735
H 1.276101544487753 6.443804507884429 12.284404919723846
H 0.5524343483383738 5.761002511214488 11.126120638918467
O -5.54011710736642 -4.693663083003927 4.439217737006874
H -6.4825835787390504 -4.502044560062592 4.557567426082114
H -5.519876222568396 -5.634147900338738 4.206751483014389
O -8.573940959470933 -4.299274037372926 1.257080211597044
H -8.652670637563416 -4.889573110322597 0.49267456067456816
H -7.689429096470651 -3.9143113596692833 1.1654044498766654
C 5.400053104521524 4.564712995523708 5.831193851763499
O 5.482832935029866 5.737472507899944 5.606247451276487
O 5.317273274013182 3.391953483147471 6.0561402522505094
O 7.896387053143663 4.243481088031331 -14.735056992733695
H 7.7251451981520916 3.813690432089081 -13.883632553300703
H 8.455347480060555 5.001292684103115 -14.506481468453384
O 14.893752649054374 -13.820744082268709 -4.83044406425174
H 14.659229583999455 -12.904785937132552 -5.042545373101982
H 15.820859462956907 -13.894000175235021 -5.102599249318647
O 17.156206254819494 -14.574745010787119 9.2780547330393
H 17.295418892516537 -14.625480838137957 10.235662729156948
H 16.28011959360831 -14.96775259270264 9.14775067744336
O 3.0210382391374395 -14.721685592931644 10.37052936983045
H 3.5207060945911914 -14.225778777553172 9.704664652648777
H 3.414694225273758 -14.445916011114742 11.211925855812876
O 6.0017800611598515 -4.9570728072010874 16.570214948260308
H 6.10223503853762 -4.186424575236897 17.148987318878067
H 6.069854907621961 -5.712831414801062 17.172839778994742
O -15.356725302747684 15.161903689206618 0.40960466120746375
H -14.85070209453868 15.424752767500548 -0.37386086559885356
H -16.15454197138879 15.71026537641384 0.3677720478340696
O 0.9262319237108452 -9.61828314483302 -12.302634484232676
H 0.10877139634103727 -9.592239747647811 -11.782973648152712
H 0.6431571154733682 -9.950641587480572 -13.167717406756415
O 5.699414151306687 8.125271926147203 10.467109085512911
H 5.1399654930313465 8.65015524434723 9.875093834079934
H 6.5634769626492275 8.119497116933214 10.028561421132668
O 0.0915459307899813 -1.084217212716509 -10.3632506416431
H 0.6319388826107308 -1.8760834500437598 -10.222216331265662
H 0.5046278782696347 -0.41506353335062524 -9.797071692584133
O -1.5637665848939968 -3.81132112348468 4.537831733874622
H -1.962252623925305 -3.5102408490442785 3.7074541679806288
H -0.6312076825146589 -3.561816032902996 4.453908866508991
O -16.5137580315417 7.735763645147937 -8.98395465921017
H -16.25933049429443 7.450571325066258 -8.09350571302812
H -15.88188227698797 7.2845717205444735 -9.563713938807986
O 2.826246501875577 20.878301090685547 6.315684108679415
H 2.7466337951953044 20.92293488069426 5.350988820713054
H 1.9288229111155513 20.668751121800284 6.615153061306508
O 8.493606156267994 -8.106288620265126 -1.38421003360917
H 8.887129238547105 -7.772922547529392 -0.5638601069545133
H 7.613236418172989 -8.408991486704036 -1.1153568335236934
O -13.300829181233269 -2.5944619731341496 -16.183830664532387
H -13.072839936933965 -2.066604170692545 -16.96380143435992
H -12.61528000424044 -3.2787095819354213 -16.155732976474553
O -11.137016555564715 -11.759243448501817 -8.693017537651833
H -11.47524626490102 -11.53255034450327 -7.813711983693607
H -10.958815094005567 -10.89996854315627 -9.10393458577905
O -11.693177091460967 10.827936914354549 -1.114912479286311
H -11.810858141008891 10.647276059826128 -2.059624172406683
H -12.086566372234312 11.70514045248537 -0.9935832958084951
O -8.163266996234723 11.179716523967732 11.189743303961546
H -8.46856923295432 12.072320668875724 10.968348313848654
H -7.795691661505023 11.272534487420433 12.081502881010673
O -6.176439289773701 -9.417034711504687 -6.56083275395484
H -5.730055728480715 -8.576430693060733 -6.378915307613739
H -7.109875768648392 -9.230365942708556 -6.379689012792875
O 16.556475611571393 -3.261485318872559 -10.7297002282542
H 16.062803598963132 -2.519333203797835 -10.349614002566625
H 17.2753404105377 -3.4125575303287814 -10.097740947894422
O -13.044582268755732 -3.1799254051430323 -9.77750237371661
H -13.258056981264364 -3.133417758357931 -10.721553719147497
H -12.11890887842722 -2.896945271056608 -9.732636323632557