194

C -5.0710522388059704 1.0783507462686561 0.47044029850746183
C -3.8153522388059704 0.1782507462686569 0.19534029850746193
C -4.11845223880597 -1.3219492537313435 0.5608402985074619
C -2.96945223880597 -2.3874492537313436 0.7034402985074619
C -2.52015223880597 0.7359507462686565 0.7384402985074618
C -2.20305223880597 0.7852507462686571 2.097440298507462
C -1.5755522388059702 1.205650746268656 -0.18965970149253808
C -0.9533522388059701 1.2695507462686564 2.508640298507462
H -2.91125223880597 0.4298507462686567 2.840840298507462
C -0.32655223880597006 1.6562507462686575 0.21554029850746192
H -1.7850522388059702 1.178550746268657 -1.2573597014925382
C 0.004447761194029898 1.6956507462686563 1.569740298507462
H -0.7158522388059702 1.2676507462686573 3.5705402985074617
H 0.3943477611940298 1.9193507462686572 -0.5551597014925382
C -1.76045223880597 -2.1592492537313435 -0.1734597014925381
C -0.5287522388059701 -1.936549253731343 0.464840298507462
C -1.8068522388059702 -2.121249253731343 -1.5681597014925381
C 0.6114477611940299 -1.614449253731343 -0.2582597014925381
H -0.4544522388059702 -1.954049253731343 1.5506402985074619
C -0.6479522388059701 -1.8270492537313432 -2.2998597014925384
H -2.74345223880597 -2.290549253731343 -2.092259701492538
C 0.5698477611940298 -1.5506492537313434 -1.6506597014925382
H 1.5072477611940298 -1.351949253731343 0.2991402985074618
H -0.7173522388059701 -1.7640492537313435 -3.3840597014925375
C 1.7791477611940298 -1.082849253731343 -2.4255597014925376
H 1.4739477611940297 -0.9102492537313429 -3.464259701492538
H 2.1252477611940295 -0.1337492537313434 -2.0010597014925384
C 1.3965477611940298 2.0964507462686566 1.997440298507462
H 1.51704776119403 1.8448507462686567 3.057640298507462
H 2.1256477611940294 1.5207507462686571 1.4165402985074618
C 3.94864776119403 -1.4275492537313434 -3.522959701492538
H 4.81734776119403 -2.087049253731343 -3.615159701492538
H 3.4305477611940303 -1.3641492537313429 -4.484459701492538
H 4.26984776119403 -0.441449253731343 -3.176459701492538
C 2.60904776119403 -3.4296492537313434 -2.8992597014925376
H 1.9825477611940296 -3.869549253731343 -2.119359701492538
H 2.06294776119403 -3.373349253731343 -3.845759701492538
H 3.5215477611940305 -4.019849253731343 -3.0234597014925377
C 3.7281477611940304 -2.060049253731343 -1.156659701492538
H 3.9048477611940298 -1.032549253731343 -0.8295597014925382
H 3.12924776119403 -2.623249253731343 -0.4404597014925382
H 4.68244776119403 -2.5769492537313434 -1.3005597014925383
C 3.1110477611940297 3.755250746268656 2.588740298507462
H 3.40124776119403 4.809350746268656 2.534540298507462
H 2.9823477611940303 3.461750746268656 3.634840298507462
H 3.86514776119403 3.1392507462686563 2.091540298507462
C 1.99744776119403 3.9574507462686572 0.40494029850746194
H 2.67914776119403 3.230350746268657 -0.04295970149253803
H 1.03214776119403 3.981150746268657 -0.10175970149253821
H 2.4399477611940297 4.958250746268657 0.368240298507462
C 0.7418477611940297 4.4992507462686575 2.475440298507462
H -0.18475223880597014 4.424250746268656 1.901240298507462
H 0.57844776119403 4.189650746268656 3.511940298507462
H 1.1210477611940297 5.524350746268658 2.4432402985074617
N 3.00114776119403 -2.025349253731343 -2.490159701492538
N 1.7831477611940298 3.586450746268657 1.862540298507462
C -3.55075223880597 -3.8435492537313434 0.6444402985074619
H -2.62515223880597 -2.2736492537313433 1.7424402985074618
H -4.67195223880597 -1.3478492537313436 1.5102402985074619
H -4.83415223880597 -1.6757492537313432 -0.1945597014925382
H -3.7169522388059697 0.17335074626865676 -0.900559701492538
H -3.9132522388059705 -4.043149253731343 -0.34225970149253815
H -4.35435223880597 -3.9354492537313432 1.3449402985074619
H -2.78115223880597 -4.545049253731343 0.8904402985074619
H -5.24235223880597 1.138950746268657 1.5249402985074618
H -5.92805223880597 0.6501507462686567 -0.006059701492538094
H -4.89895223880597 2.059650746268657 0.08004029850746197
C 3.3248928797034685 -0.12675459029813485 2.424869643922489
O 3.8736579117732273 0.4017249827771301 1.4702274182590407
O 3.6505206284601055 0.025336662527358333 3.6078600429341026
O 2.358989775866449 -0.8954507332736317 2.3556900358533
O -7.643747975253191 -0.6303688757513122 4.092385219885979
H -7.513047286192966 -0.9809501769986197 3.1985298412061116
H -6.744145001787821 -0.4695519336095111 4.414587556240675
O 1.4396089055368564 -6.639526914376941 -5.7256434895134385
H 1.5449428573506632 -7.1123504193915 -4.8864116689769235
H 1.8406523081092292 -5.773435914554688 -5.55827409691114
O -4.636220518120414 -8.385257445617105 2.7220950928883108
H -4.752555316363251 -7.964206839752697 1.8571384703233327
H -4.689610289324699 -7.649043431006934 3.349869257156265
O 11.028819688114659 3.910457096483916 1.5020940051333262
H 10.450621330691039 4.472543105710099 0.9647734912825969
H 11.558428646842987 3.428015896994344 0.8496165847042674
O -2.726525820062152 -0.9232989985845785 -6.845857194566037
H -2.4371995134117994 -1.3547747289516536 -6.027880214887349
H -3.692416848958243 -0.9964542909683533 -6.820074103318169
O -4.613761463102637 2.626142323810372 -5.8908069458543055
H -4.142717232528145 1.779335545763857 -5.892530429815929
H -4.141380206699765 3.1553986020823093 -5.230726886460766
O 5.199573539870736 7.937713879577272 -3.946916710474166
H 4.653946052417485 7.621429022111844 -3.211238866052079
H 5.25982381225398 7.173177597444583 -4.539214036384446
O -8.901308492767226 4.302497704213402 4.75292949367085
H -9.017333073145851 4.263081152040197 5.714153707401831
H -8.150574673720632 4.903156717817934 4.632225613802197
O -4.294038514992626 -2.8648420815903175 4.372336281968748
H -3.6180551975119823 -2.337791648733676 4.82425635522672
H -4.294894745913278 -2.5181863363508232 3.467465569954561
O 7.806205038048987 2.759152639755735 -0.5929792838809862
H 8.184674843176206 1.8672219462599682 -0.6066760538333632
H 7.215279002964835 2.7508978490765275 0.17494012842121898
O 5.704270264126075 -3.7670972621338747 4.62777669312255
H 6.579263205819643 -4.181525158515752 4.667829503097998
H 5.173069245739597 -4.280788791741554 5.2546007791103895
O -2.385668029032156 -4.305268897717381 5.556943337565384
H -2.0217994530169694 -3.420222610856124 5.709455915413182
H -2.9104744691836446 -4.482763501423986 6.351950136486346
O 3.8089714183628884 9.206395397019191 7.663226388265992
H 3.5123871838472933 9.41592006215052 8.561616372314347
H 3.445915265141752 9.92456316545782 7.123423433212809
O -0.9946933288812887 6.194249199234436 -3.8979678709006462
H -1.2290180929176378 5.852820644484262 -4.77403054209519
H -0.13493334502322396 5.788341551215943 -3.7108484017466457
O -6.671430272852248 6.7174535002220885 3.3341807694648224
H -6.489503839608766 5.778938357417675 3.1758789801062806
H -6.167792006772556 6.9214140593863895 4.136496500050748
O -8.176764935188508 0.6089723010181913 -3.7770172642675854
H -8.303067705878146 1.0252393523970431 -4.6428906435514605
H -8.092103487128213 1.357540417439881 -3.1675583578684616
O -4.649137782483599 -0.9045141808283497 -3.4611197792248785
H -4.984377330219335 -0.7314452289036284 -4.353660501216665
H -4.13657999599551 -0.11090477587177977 -3.245642234745393
O 5.252098439030222 -5.251783138578863 0.26133121140198545
H 5.152598010733585 -5.393327332943352 -0.6921006229262452
H 5.105499874820975 -6.129513034798462 0.6448165886383506
O -3.0628864956880575 6.501935045336282 4.461159617267395
H -3.117386290720379 6.218064185375752 3.536273427454451
H -3.115786359661683 7.468286293871654 4.412901839182401
O 4.3261480378237245 -1.6730386221095523 9.133132161188815
H 3.4060711013175187 -1.3701605961620844 9.159413127828598
H 4.2651978990560275 -2.5772571544681226 8.7901513007556
C -6.771269889931249 -11.30679126746955 0.5535117989571336
O -6.825632310476852 -12.097571940251143 1.4504671557545112
O -6.716907469385649 -10.516010594687954 -0.34344355784024483
O 9.749884195858037 15.948920308658234 6.75815586079055
H 10.242082841435169 15.647715210339024 5.979706543918506
H 8.983412792089904 16.410614829652143 6.386239605714335
O 11.56257943616345 -8.648722440303166 -1.560466303059533
H 10.709539640855493 -8.722980771639119 -1.1068407253545756
H 12.147027145671185 -8.252912572179378 -0.8966008291516081
O -16.804561575938962 -0.4570636263858381 2.7299672583913246
H -16.55413586366156 -1.252642164761589 2.2367035268984656
H -16.86660840984836 0.23023871913971483 2.0497264035928993
O 17.690101519755316 3.2157075345104786 6.661479171817201
H 17.866481694444424 4.040721350875988 6.184814096861362
H 18.472113680964497 3.0970239770865384 7.221240850764713
O 11.025414465128376 -1.0072106218191892 11.306721044821543
H 11.580769461074324 -0.3779094473525071 11.791002179280373
H 10.86464158199215 -0.571331130746451 10.456354598158555
O -0.9459616327409406 7.358285707820149 7.639700224143807
H -1.039201543464474 6.537254751322092 7.133556129621153
H -1.8523971546370959 7.572862790862658 7.906708209750626
O 17.47314616794379 9.625459468524612 -9.826001789305703
H 17.72189243932109 9.866093901478365 -10.731091684870186
H 18.07972836352259 8.904245848022727 -9.600456011448168
O 13.71127483796687 8.925371197155954 5.109930475133021
H 13.540266541001548 8.888792390270117 4.156837871995304
H 12.834195479432392 9.057199793380892 5.500205973147065
O -7.4688896977978825 21.730110370282937 -10.187562750437168
H -7.336395269940634 21.79359712972088 -11.145363363750219
H -8.21848083268205 21.123109166059805 -10.09469395656793
O -10.419773113206173 17.70951652899904 -2.2381623552354952
H -9.740549676278716 17.298265215475524 -2.793585830390839
H -10.420998855690371 18.63717426723542 -2.5181830018769986
O 9.075113674783609 -6.930222657361373 -3.0706531106256647
H 9.145532792307913 -7.854674753884786 -3.3524275346257264
H 9.897324289441904 -6.526065634071866 -3.3862299633398547
O 4.261439868934936 9.569793557577851 -5.436067174478044
H 4.046214246549086 9.324447078025536 -6.348454369335529
H 3.4616560049372382 10.015383101643744 -5.1186436822660415
O -11.703091441885341 13.215220429015018 10.557919201499507
H -11.433389461874881 13.183707197133433 9.627739049542472
H -12.670162776548091 13.262934739294717 10.519731211657879
O -13.696818163659776 -12.410111986638315 4.653242327028189
H -13.800359246795697 -13.244633200275988 4.171764451117211
H -14.309980674899226 -11.805722362146378 4.208599930357533
O 3.107375228494676 -9.693037843408774 -3.61972577767444
H 3.1910033905432 -9.066572566420128 -4.354242587652213
H 2.1904572347726337 -10.000981184386944 -3.677985848357083
O -0.6238790080850636 13.380521335310638 3.367962083398813
H -1.3755717788611148 12.913176435047422 2.9736093485775767
H -0.048079311658564106 13.576253811225536 2.613571301530839
O 7.091854592065418 7.113830196477684 9.898452565796706
H 7.543515309045542 6.677656593083629 10.636505776167914
H 6.155074699164917 7.078888487021399 10.143777765272015
O -0.44988635084381956 -8.339532104288807 7.546019571237887
H -0.3280519740494845 -7.609396616490761 8.171340217777763
H 0.3646786074674022 -8.336605862264088 7.021198353965709
O 6.761954916769705 1.9019745329697955 8.657745861143813
H 6.280619492993426 1.4438705807662542 9.363029021082859
H 6.81958931323555 2.81743172697684 8.970121190811131
O 3.3636259427573254 -16.794078779959918 2.0532875914057964
H 4.175391713996295 -16.314478961297496 2.2768668916188854
H 2.7731892370469655 -16.107151139036585 1.7090829183035812