194

C -5.0710522388059704 1.0783507462686561 0.47044029850746183
C -3.8153522388059704 0.1782507462686569 0.19534029850746193
C -4.11845223880597 -1.3219492537313435 0.5608402985074619
C -2.96945223880597 -2.3874492537313436 0.7034402985074619
C -2.52015223880597 0.7359507462686565 0.7384402985074618
C -2.20305223880597 0.7852507462686571 2.097440298507462
C -1.5755522388059702 1.205650746268656 -0.18965970149253808
C -0.9533522388059701 1.2695507462686564 2.508640298507462
H -2.91125223880597 0.4298507462686567 2.840840298507462
C -0.32655223880597006 1.6562507462686575 0.21554029850746192
H -1.7850522388059702 1.178550746268657 -1.2573597014925382
C 0.004447761194029898 1.6956507462686563 1.569740298507462
H -0.7158522388059702 1.2676507462686573 3.5705402985074617
H 0.3943477611940298 1.9193507462686572 -0.5551597014925382
C -1.76045223880597 -2.1592492537313435 -0.1734597014925381
C -0.5287522388059701 -1.936549253731343 0.464840298507462
C -1.8068522388059702 -2.121249253731343 -1.5681597014925381
C 0.6114477611940299 -1.614449253731343 -0.2582597014925381
H -0.4544522388059702 -1.954049253731343 1.5506402985074619
C -0.6479522388059701 -1.8270492537313432 -2.2998597014925384
H -2.74345223880597 -2.290549253731343 -2.092259701492538
C 0.5698477611940298 -1.5506492537313434 -1.6506597014925382
H 1.5072477611940298 -1.351949253731343 0.2991402985074618
H -0.7173522388059701 -1.7640492537313435 -3.3840597014925375
C 1.7791477611940298 -1.082849253731343 -2.4255597014925376
H 1.4739477611940297 -0.9102492537313429 -3.464259701492538
H 2.1252477611940295 -0.1337492537313434 -2.0010597014925384
C 1.3965477611940298 2.0964507462686566 1.997440298507462
H 1.51704776119403 1.8448507462686567 3.057640298507462
H 2.1256477611940294 1.5207507462686571 1.4165402985074618
C 3.94864776119403 -1.4275492537313434 -3.522959701492538
H 4.81734776119403 -2.087049253731343 -3.615159701492538
H 3.4305477611940303 -1.3641492537313429 -4.484459701492538
H 4.26984776119403 -0.441449253731343 -3.176459701492538
C 2.60904776119403 -3.4296492537313434 -2.8992597014925376
H 1.9825477611940296 -3.869549253731343 -2.119359701492538
H 2.06294776119403 -3.373349253731343 -3.845759701492538
H 3.5215477611940305 -4.019849253731343 -3.0234597014925377
C 3.7281477611940304 -2.060049253731343 -1.156659701492538
H 3.9048477611940298 -1.032549253731343 -0.8295597014925382
H 3.12924776119403 -2.623249253731343 -0.4404597014925382
H 4.68244776119403 -2.5769492537313434 -1.3005597014925383
C 3.1110477611940297 3.755250746268656 2.588740298507462
H 3.40124776119403 4.809350746268656 2.534540298507462
H 2.9823477611940303 3.461750746268656 3.634840298507462
H 3.86514776119403 3.1392507462686563 2.091540298507462
C 1.99744776119403 3.9574507462686572 0.40494029850746194
H 2.67914776119403 3.230350746268657 -0.04295970149253803
H 1.03214776119403 3.981150746268657 -0.10175970149253821
H 2.4399477611940297 4.958250746268657 0.368240298507462
C 0.7418477611940297 4.4992507462686575 2.475440298507462
H -0.18475223880597014 4.424250746268656 1.901240298507462
H 0.57844776119403 4.189650746268656 3.511940298507462
H 1.1210477611940297 5.524350746268658 2.4432402985074617
N 3.00114776119403 -2.025349253731343 -2.490159701492538
N 1.7831477611940298 3.586450746268657 1.862540298507462
C -3.55075223880597 -3.8435492537313434 0.6444402985074619
H -2.62515223880597 -2.2736492537313433 1.7424402985074618
H -4.67195223880597 -1.3478492537313436 1.5102402985074619
H -4.83415223880597 -1.6757492537313432 -0.1945597014925382
H -3.7169522388059697 0.17335074626865676 -0.900559701492538
H -3.9132522388059705 -4.043149253731343 -0.34225970149253815
H -4.35435223880597 -3.9354492537313432 1.3449402985074619
H -2.78115223880597 -4.545049253731343 0.8904402985074619
H -5.24235223880597 1.138950746268657 1.5249402985074618
H -5.92805223880597 0.6501507462686567 -0.006059701492538094
H -4.89895223880597 2.059650746268657 0.08004029850746197
C -3.203594304022029 0.9053714155773722 -3.3519484352797377
O -4.386133965754339 1.20441591802118 -3.2891166551985593
O -2.3244989207032116 1.585338579887713 -3.8936747744836704
O -2.70297563644109 -0.12351502121837599 -2.883523378043008
O 10.710407202865195 1.4677062182145884 1.0588488194600982
H 10.973640785287113 1.7406304103338845 1.9505818643459283
H 9.745232122383293 1.398907101526674 1.1104791386506148
O 8.655093745534844 -5.647662403681902 -0.6032300114268421
H 9.421399784984466 -5.889410860600368 -0.06165813772901399
H 8.19351544932618 -6.487956176359592 -0.7439914989445535
O -7.7541043555035385 -0.7715011192131876 5.182147863932319
H -8.122975496916922 -0.6948930128536224 6.074914706939153
H -7.114005008173342 -1.4953603384111844 5.2546916481562
O 7.119649650337479 2.3847171041972497 3.186227341654954
H 6.71656644456157 1.692515438510012 3.731523719912897
H 8.01006935757663 2.4845381717006334 3.555213037505932
O -0.47756207907668746 8.001381431271321 -6.940324281706552
H -1.2137244328339765 8.31324565605599 -7.4878396249709995
H -0.4444351162918654 8.636239270344223 -6.209010345831993
O 2.7769821067475693 7.915493009741704 0.5272686932154858
H 3.157896350328219 8.107113330041612 1.397414283783836
H 2.608764320742281 8.790945475520159 0.14746913959028563
O 2.9969773643548465 -6.917757399051117 -3.857834115415365
H 3.080198119939467 -7.071741293695703 -2.90477030699013
H 3.510957757557919 -6.110571713121286 -4.010272195083145
O 6.815042598250246 8.149193417917541 0.15932933831663187
H 6.530203913497691 7.652455984607574 -0.6223906901571574
H 7.490417422466658 7.58349872141229 0.5628393152199098
O 4.342119761757033 -3.4394892244973456 3.423868377401523
H 4.700779787980919 -3.1254758199577393 2.5802298740966254
H 3.3900453982220355 -3.514668703110684 3.259964757567016
O -1.47043058366252 -2.398263830969859 9.348958728774885
H -1.683299185695025 -1.4934897613001412 9.07502771917206
H -0.6633096311560283 -2.608400990654076 8.855643326172391
O 8.516561164509103 -1.0930634298802557 -4.353304080742756
H 9.373267073778992 -0.6784093476312925 -4.535195075561968
H 8.082952771087893 -1.1240502337478833 -5.219321126441479
O 3.320594553184468 4.616271374035261 -5.3815990713357715
H 3.6680155397021608 4.949837564738688 -4.54076638200532
H 3.9514021819234824 4.941894564856598 -6.041154389276572
O -1.6659526173635155 7.4508551537019 -1.3905169920685139
H -1.7486998493652466 7.39346165707251 -2.354273309319252
H -1.323830639406898 8.344490924824845 -1.2377766730019601
O -5.971870851509733 -2.214805615669229 -3.3941615706483743
H -6.936195591375756 -2.2453807666197205 -3.304104293725944
H -5.776574657612731 -1.2717448446870299 -3.5012023254280518
O -0.7935579330650298 4.200456074839577 6.135780259010039
H -0.522392875588257 3.291689482907886 5.93683265311221
H -0.36803670308178915 4.7285199584766895 5.44365154126193
O -7.01395900923435 0.41936985478874567 -7.142822464426734
H -7.26851483431532 1.154545598740203 -7.720477477668002
H -6.463330219153554 0.8358000818903903 -6.462855005065455
O 3.2454064277205346 2.4567863586751626 7.424124374185976
H 3.025207186754725 3.353046344809998 7.719416921385642
H 2.571611185698372 1.9002643465134583 7.8427473144410245
O -7.708002592853667 5.684334513604209 -0.06968009749510262
H -6.946376733953236 5.434555694648195 -0.6142018597370904
H -7.903125157553962 4.884233489080399 0.4409347080097201
O 4.066454198298777 -0.41023969839038776 -8.28772617346362
H 3.976359910396002 -0.5709996326118869 -9.239044532235482
H 4.089525359939733 0.5557325724217894 -8.214738244170476
O -11.838866389090995 -0.371015041853636 0.26739847284711926
H -11.552668195846621 -0.056899910914235186 1.1382541644508324
H -11.705533817100662 0.393646431198313 -0.3126680760733165
C -19.460922173747722 8.11171780456807 8.454143505192445
O -18.499237442734895 7.564157249052274 8.91038705142628
O -20.422606904760546 8.659278360083864 7.9978999589586115
O -5.652874338349409 -12.846427298583231 -11.926937390924131
H -6.10331139375356 -12.1828622022775 -11.383103612106
H -4.745250090893312 -12.850241757780703 -11.587576786801048
O 2.9107715410238324 -9.101633141351826 10.461654171920248
H 3.280742293144127 -9.716593644095303 9.810568478988023
H 2.007600801506216 -9.423815854227236 10.601091825025295
O 5.723505469332734 17.518679562447815 4.6466313619763895
H 4.996888028318614 16.97353618239868 4.309269321280198
H 5.484521778648246 18.41882979590147 4.379090155617152
O -0.6843128601374537 -13.541947685741981 10.534320430671153
H -0.014185677251704054 -13.183092803655944 9.933387747868307
H -0.3055881829510821 -13.405243285711672 11.415706538005749
O -0.6493616493274441 -10.552336991699704 4.7727635193844
H -1.071031069471227 -10.575656686012534 3.900629098052022
H -0.396175650336716 -9.623826554172728 4.885578241910018
O 13.450105957989136 -6.868664552183115 10.635211726701044
H 13.74130452232653 -7.77428987509034 10.450784159518081
H 12.528463630338573 -6.97177959992351 10.916111443882011
O 10.216442914268692 -13.057844802263222 -9.927328683125562
H 10.426297409024928 -12.931272181150703 -8.989827846051101
H 10.898670727974471 -12.54906616992809 -10.390655196273066
O -5.560880314655469 6.6401759271415175 3.2536654098619358
H -4.628184181845497 6.664065516310596 2.991988952627708
H -5.9847877532448015 7.285714272852744 2.6683922496836803
O 13.55636324386922 8.919519157264244 -4.666973153995228
H 14.249943632863346 8.3583799336959 -5.045174651448471
H 14.043376732219787 9.569286269870522 -4.138217533845514
O -10.41124605516535 6.811410003303604 -3.138916080806239
H -10.654740292162629 6.759086458593839 -4.075366912466995
H -11.245731474399584 7.0167336670945275 -2.6912128057758475
O 11.444001208230924 -0.5937895234257491 7.484880437556995
H 10.553914946591402 -0.45743667672718225 7.8428213613667435
H 11.998531953732433 0.011660467812764974 7.999553056512797
O 6.941634886988164 -17.146954720494364 1.0060220635631802
H 7.031503789507635 -16.309135205769024 1.4845086339132179
H 7.745563187443487 -17.635994335089663 1.2373259489250508
O 8.760219283077658 10.354083167275478 12.256028096172974
H 8.798836432736511 10.3949288860975 11.288656554361797
H 9.249093908713716 9.546856884290104 12.475912776782646
O 7.57545981777057 6.784989912132498 -14.532099134613972
H 7.412588475416452 6.457279115022917 -15.429342644591932
H 8.410561706717521 6.364647168726612 -14.277386046133529
O 10.529730752986467 4.545308022834753 -10.702004332389155
H 9.856091249521103 3.8639304042279337 -10.557430070735691
H 11.36820446912652 4.07483581711859 -10.581258006188914
O -16.23501091843784 -3.469490881786439 -2.4593301898517015
H -16.306707059433595 -3.718655972802309 -3.3930023901904356
H -16.9646442709361 -3.9442767296391015 -2.0336830191798154
O -10.385329207446711 -4.031315055357528 -15.34463231863333
H -9.98008227617678 -4.404574324857808 -14.547500084102309
H -9.632142939832114 -3.8469777166878263 -15.925745161503771
O 0.46484564232151904 -10.252619323486876 -14.590771981625554
H -0.0940702319647988 -10.58737834999537 -13.873473719713646
H 0.6842270876004175 -11.043881406755656 -15.105298989029919
O -0.9132640646721877 18.099765905093722 -7.485610267637717
H -0.32713389196430753 18.86906797550388 -7.545552756775785
H -0.7375780102339 17.73984591235756 -6.603253223463019
O -11.990236950936374 8.328791869450104 1.5159799929725333
H -11.869137234395783 7.874993825797505 0.6684131512834162
H -12.406791485263243 9.169534013694069 1.2739120043334244