194

C -5.0710522388059704 1.0783507462686561 0.47044029850746183
C -3.8153522388059704 0.1782507462686569 0.19534029850746193
C -4.11845223880597 -1.3219492537313435 0.5608402985074619
C -2.96945223880597 -2.3874492537313436 0.7034402985074619
C -2.52015223880597 0.7359507462686565 0.7384402985074618
C -2.20305223880597 0.7852507462686571 2.097440298507462
C -1.5755522388059702 1.205650746268656 -0.18965970149253808
C -0.9533522388059701 1.2695507462686564 2.508640298507462
H -2.91125223880597 0.4298507462686567 2.840840298507462
C -0.32655223880597006 1.6562507462686575 0.21554029850746192
H -1.7850522388059702 1.178550746268657 -1.2573597014925382
C 0.004447761194029898 1.6956507462686563 1.569740298507462
H -0.7158522388059702 1.2676507462686573 3.5705402985074617
H 0.3943477611940298 1.9193507462686572 -0.5551597014925382
C -1.76045223880597 -2.1592492537313435 -0.1734597014925381
C -0.5287522388059701 -1.936549253731343 0.464840298507462
C -1.8068522388059702 -2.121249253731343 -1.5681597014925381
C 0.6114477611940299 -1.614449253731343 -0.2582597014925381
H -0.4544522388059702 -1.954049253731343 1.5506402985074619
C -0.6479522388059701 -1.8270492537313432 -2.2998597014925384
H -2.74345223880597 -2.290549253731343 -2.092259701492538
C 0.5698477611940298 -1.5506492537313434 -1.6506597014925382
H 1.5072477611940298 -1.351949253731343 0.2991402985074618
H -0.7173522388059701 -1.7640492537313435 -3.3840597014925375
C 1.7791477611940298 -1.082849253731343 -2.4255597014925376
H 1.4739477611940297 -0.9102492537313429 -3.464259701492538
H 2.1252477611940295 -0.1337492537313434 -2.0010597014925384
C 1.3965477611940298 2.0964507462686566 1.997440298507462
H 1.51704776119403 1.8448507462686567 3.057640298507462
H 2.1256477611940294 1.5207507462686571 1.4165402985074618
C 3.94864776119403 -1.4275492537313434 -3.522959701492538
H 4.81734776119403 -2.087049253731343 -3.615159701492538
H 3.4305477611940303 -1.3641492537313429 -4.484459701492538
H 4.26984776119403 -0.441449253731343 -3.176459701492538
C 2.60904776119403 -3.4296492537313434 -2.8992597014925376
H 1.9825477611940296 -3.869549253731343 -2.119359701492538
H 2.06294776119403 -3.373349253731343 -3.845759701492538
H 3.5215477611940305 -4.019849253731343 -3.0234597014925377
C 3.7281477611940304 -2.060049253731343 -1.156659701492538
H 3.9048477611940298 -1.032549253731343 -0.8295597014925382
H 3.12924776119403 -2.623249253731343 -0.4404597014925382
H 4.68244776119403 -2.5769492537313434 -1.3005597014925383
C 3.1110477611940297 3.755250746268656 2.588740298507462
H 3.40124776119403 4.809350746268656 2.534540298507462
H 2.9823477611940303 3.461750746268656 3.634840298507462
H 3.86514776119403 3.1392507462686563 2.091540298507462
C 1.99744776119403 3.9574507462686572 0.40494029850746194
H 2.67914776119403 3.230350746268657 -0.04295970149253803
H 1.03214776119403 3.981150746268657 -0.10175970149253821
H 2.4399477611940297 4.958250746268657 0.368240298507462
C 0.7418477611940297 4.4992507462686575 2.475440298507462
H -0.18475223880597014 4.424250746268656 1.901240298507462
H 0.57844776119403 4.189650746268656 3.511940298507462
H 1.1210477611940297 5.524350746268658 2.4432402985074617
N 3.00114776119403 -2.025349253731343 -2.490159701492538
N 1.7831477611940298 3.586450746268657 1.862540298507462
C -3.55075223880597 -3.8435492537313434 0.6444402985074619
H -2.62515223880597 -2.2736492537313433 1.7424402985074618
H -4.67195223880597 -1.3478492537313436 1.5102402985074619
H -4.83415223880597 -1.6757492537313432 -0.1945597014925382
H -3.7169522388059697 0.17335074626865676 -0.900559701492538
H -3.9132522388059705 -4.043149253731343 -0.34225970149253815
H -4.35435223880597 -3.9354492537313432 1.3449402985074619
H -2.78115223880597 -4.545049253731343 0.8904402985074619
H -5.24235223880597 1.138950746268657 1.5249402985074618
H -5.92805223880597 0.6501507462686567 -0.006059701492538094
H -4.89895223880597 2.059650746268657 0.08004029850746197
C -0.8763410900972193 4.02652776268199 -2.272693918643607
O -0.7782208593198965 4.943031050454237 -1.471339039445341
O -0.2939152692560616 2.939331464839133 -2.1865786628854735
O -1.5732567193652656 4.044410473991748 -3.293789995767662
O -9.103048894929051 -3.1734395310178574 -0.9859583372614023
H -9.397941677931259 -3.017703770397684 -0.07614957917140153
H -8.136112920237611 -3.1641977542265507 -0.9234175129203728
O 9.421533909129671 -3.821245309648776 -3.1588238157978097
H 8.981282969043361 -3.904864352265839 -4.01798289441185
H 9.380931263681363 -4.715161187159142 -2.787033857061063
O 10.53354951011007 1.7757093108098556 -5.481202664094274
H 10.865724101623197 2.641919823794848 -5.201369240702135
H 10.657291078907846 1.2144023993622501 -4.701084391258279
O -2.3846143203894985 3.8565106101936864 -0.045298341779361775
H -2.5106214630594668 4.205009834944771 0.8500439655221779
H -2.7252312560354386 2.9507998169687144 0.005985247086482515
O 6.870900947312016 -8.57240801718399 -2.894568322874922
H 6.497402080336219 -9.46652817419702 -2.8906826966977386
H 7.726314092842083 -8.678001718932931 -3.337377835990114
O 1.529465375396593 -7.150375712109543 -1.6188064505826543
H 1.2704269822091585 -6.634735058120355 -2.3972543831436415
H 1.9208942618963443 -7.955014499566492 -1.9906959406645517
O -0.09458602588640064 -6.819799759061056 7.390368250635117
H -0.09301930004555947 -6.921717579443118 8.353995595700994
H -0.0384238212570267 -7.728572699319869 7.058797000185802
O 1.5572999911716767 6.51240258981627 -8.100144488153413
H 1.6006677244602758 6.473803830888294 -9.0674069822152
H 2.470416132814738 6.6948367105503 -7.832005256106159
O 7.183586996299617 -1.9940860514304561 6.883182657951916
H 7.276753034064227 -2.0449068454525134 7.846356937717634
H 6.553782398055644 -2.6993957518978196 6.6714131163332375
O -6.272986539586959 -10.121652964734173 -0.006778812079620167
H -6.474117729844444 -9.201875548342459 0.22240038745949375
H -5.818844508514249 -10.464372453122458 0.7776064964212628
O -10.163480377586913 4.862569772628849 -4.264507783715074
H -9.815553930515884 4.067860644420656 -4.696192791412939
H -11.047394758685664 4.968800570392373 -4.647094151471865
O -7.31657515697295 -5.546153132180755 4.93318202482728
H -6.462716654499201 -5.736779079086486 4.516582981357927
H -7.142074444358164 -4.763418580582389 5.477092005735001
O -3.6553647530167623 2.977141653579853 -6.660804324321523
H -3.9631580372170716 2.970336188661126 -5.742009278215794
H -3.3325233403604457 3.881194222184644 -6.792805535577904
O -10.284608704215703 -3.049026068352367 2.3859076509767574
H -10.396384517433315 -4.011529020144907 2.3937557252747954
H -11.044295212969104 -2.7210530735176155 2.8901616220837716
O 4.730245035263479 -7.110596189530574 3.181280960940564
H 5.601237200418389 -7.039387859563425 3.5999328197469653
H 4.710861508016371 -8.014894413183708 2.833673501484859
O 7.162466441525914 1.3462899790463179 -0.9154976331549749
H 7.960199711522636 1.8122645279861216 -1.2078274239404576
H 7.152152697277539 1.4793307021021254 0.04427095196769243
O 1.023860625702591 7.6974699067103876 -2.751423499039784
H 0.8107254050416128 7.391385519682418 -1.8570784411166639
H 0.1636588285015228 7.936089813577198 -3.1283523417129406
O -4.065205837397445 4.624425185574624 -3.5958426948246696
H -4.817745646374691 5.010597837091268 -4.068623697007601
H -4.319155825570429 4.684714948728601 -2.662656490326458
O -4.343141442523203 7.228803219869942 -0.2674033818282955
H -5.295177724540786 7.38663344539797 -0.3550612082439133
H -4.263329516760059 6.263261820175945 -0.2853423417462029
O -1.323355152141235 10.752036462328476 3.865197865229062
H -2.1279668730129835 11.263637151878443 4.037917493493495
H -1.53056252018429 9.868314823971819 4.20440741230711
C -0.9012029387772102 8.177631830146135 -14.398408624348738
O -0.9025302065585894 8.4293575181465 -13.228173317386508
O -0.899875670995832 7.925906142145771 -15.568643931310964
O 1.1396926496035429 13.856504573329397 8.84809243982673
H 0.7940917309619394 13.214426619258774 8.209920626887172
H 2.066611067583668 13.968536055398479 8.588798903974746
O 4.813162120717878 14.342761690643185 -7.130451760004361
H 3.8768644778698693 14.299450677035637 -7.376293654313592
H 5.184320053728204 15.000676735836125 -7.737371463401992
O -7.573995282070694 -17.929807949899196 -13.819902333116552
H -7.520122484494562 -17.93628671217615 -12.85241946286991
H -6.77236930143898 -18.395352579262486 -14.102083001389984
O 8.181490517985122 4.978893555421024 -4.73664825425648
H 8.106283473727416 4.209479729653496 -5.32086877949656
H 9.002502551685126 5.408563262735713 -5.019994557277878
O -0.42453590158110455 7.029121286636001 10.803287216830832
H -0.04570870924558612 7.659146397461513 10.171998317057922
H -0.5948167739298524 7.56337928817897 11.593562331331764
O 5.378790284879881 -10.293294545777277 -9.494978354291527
H 6.093315496597896 -10.945696287975252 -9.442129082807675
H 4.980325225345779 -10.310520756651442 -8.611864093117243
O 10.565683656296052 -12.087995973758968 12.179606193556092
H 10.572731496184014 -11.872294909577853 11.234941842707574
H 9.738133187857155 -12.577054705307454 12.30185071728924
O -5.639417230799358 10.69247174801985 3.3728364963936612
H -5.12328088800426 10.469505068061085 4.16204907369731
H -5.910321428472592 9.831826165382708 3.0194782630522052
O 2.6952680047988546 -12.488286265479603 -10.315183372924217
H 3.1287100646263 -13.32078986196649 -10.074282772034678
H 2.012780784685206 -12.374862412192861 -9.636723228046765
O 8.689672136762017 11.245256804102993 12.808904808062303
H 8.70346971220936 11.28802780886516 13.776865357342805
H 9.052327219771477 12.099994777837981 12.531657208752927
O 6.1975804458268975 5.546674965728464 11.78508089034789
H 6.415034979357885 6.061912680460875 10.99374595489758
H 6.8603583009925675 4.839840521675971 11.793597210151367
O 15.546258323155001 -0.5056003558160036 8.441234027868415
H 15.88401703978301 -0.4237294305652206 9.345769023233649
H 16.145842537432994 -1.1424550404068938 8.024248626441358
O -9.104927124662549 -11.610327310887103 -7.338557074700109
H -9.224645078043082 -11.70831424858766 -6.381983225706502
H -8.284503869991003 -11.101310930476622 -7.420836792540907
O 4.107481997895647 -16.052533029084312 3.7291088931671377
H 4.983642967204929 -16.297150371326754 3.3952351615959584
H 3.6604865018614023 -16.902534119491904 3.858163599129382
O -5.921576855561301 -10.516286278544746 10.298105744974817
H -6.6612524215519935 -10.486810807998404 10.923388569472998
H -6.29410825687837 -10.948799050962903 9.515089141684758
O -14.579076911277635 2.8826169495128062 0.595024442700157
H -14.863871004563695 3.781165437303447 0.8196803939200752
H -14.972913747219781 2.3320324641640653 1.2883578512766811
O -9.276371364675038 -13.468764146473717 -4.206619960008924
H -8.827490850470626 -13.320158409839046 -5.0524272524265585
H -8.552012035826882 -13.546412757552993 -3.5676863169691257
O -14.731602725445054 -13.004341872431851 -6.165301702908515
H -14.018639185383828 -12.959255559148344 -5.510612790677773
H -15.049392242064844 -13.917610898978227 -6.102760096136728
O -10.054187514106882 -10.117816686460994 -5.237546220670502
H -10.772956542889284 -9.570334296506488 -4.887401289459296
H -9.9912872362477 -9.85445944871832 -6.167948534013383
O -15.262115032130197 -10.980994111057129 -15.505302895964288
H -15.36074314087083 -10.94329897330563 -16.46853647597287
H -15.568117031261979 -11.87066360832991 -15.27332680570981