194

C -5.0710522388059704 1.0783507462686561 0.47044029850746183
C -3.8153522388059704 0.1782507462686569 0.19534029850746193
C -4.11845223880597 -1.3219492537313435 0.5608402985074619
C -2.96945223880597 -2.3874492537313436 0.7034402985074619
C -2.52015223880597 0.7359507462686565 0.7384402985074618
C -2.20305223880597 0.7852507462686571 2.097440298507462
C -1.5755522388059702 1.205650746268656 -0.18965970149253808
C -0.9533522388059701 1.2695507462686564 2.508640298507462
H -2.91125223880597 0.4298507462686567 2.840840298507462
C -0.32655223880597006 1.6562507462686575 0.21554029850746192
H -1.7850522388059702 1.178550746268657 -1.2573597014925382
C 0.004447761194029898 1.6956507462686563 1.569740298507462
H -0.7158522388059702 1.2676507462686573 3.5705402985074617
H 0.3943477611940298 1.9193507462686572 -0.5551597014925382
C -1.76045223880597 -2.1592492537313435 -0.1734597014925381
C -0.5287522388059701 -1.936549253731343 0.464840298507462
C -1.8068522388059702 -2.121249253731343 -1.5681597014925381
C 0.6114477611940299 -1.614449253731343 -0.2582597014925381
H -0.4544522388059702 -1.954049253731343 1.5506402985074619
C -0.6479522388059701 -1.8270492537313432 -2.2998597014925384
H -2.74345223880597 -2.290549253731343 -2.092259701492538
C 0.5698477611940298 -1.5506492537313434 -1.6506597014925382
H 1.5072477611940298 -1.351949253731343 0.2991402985074618
H -0.7173522388059701 -1.7640492537313435 -3.3840597014925375
C 1.7791477611940298 -1.082849253731343 -2.4255597014925376
H 1.4739477611940297 -0.9102492537313429 -3.464259701492538
H 2.1252477611940295 -0.1337492537313434 -2.0010597014925384
C 1.3965477611940298 2.0964507462686566 1.997440298507462
H 1.51704776119403 1.8448507462686567 3.057640298507462
H 2.1256477611940294 1.5207507462686571 1.4165402985074618
C 3.94864776119403 -1.4275492537313434 -3.522959701492538
H 4.81734776119403 -2.087049253731343 -3.615159701492538
H 3.4305477611940303 -1.3641492537313429 -4.484459701492538
H 4.26984776119403 -0.441449253731343 -3.176459701492538
C 2.60904776119403 -3.4296492537313434 -2.8992597014925376
H 1.9825477611940296 -3.869549253731343 -2.119359701492538
H 2.06294776119403 -3.373349253731343 -3.845759701492538
H 3.5215477611940305 -4.019849253731343 -3.0234597014925377
C 3.7281477611940304 -2.060049253731343 -1.156659701492538
H 3.9048477611940298 -1.032549253731343 -0.8295597014925382
H 3.12924776119403 -2.623249253731343 -0.4404597014925382
H 4.68244776119403 -2.5769492537313434 -1.3005597014925383
C 3.1110477611940297 3.755250746268656 2.588740298507462
H 3.40124776119403 4.809350746268656 2.534540298507462
H 2.9823477611940303 3.461750746268656 3.634840298507462
H 3.86514776119403 3.1392507462686563 2.091540298507462
C 1.99744776119403 3.9574507462686572 0.40494029850746194
H 2.67914776119403 3.230350746268657 -0.04295970149253803
H 1.03214776119403 3.981150746268657 -0.10175970149253821
H 2.4399477611940297 4.958250746268657 0.368240298507462
C 0.7418477611940297 4.4992507462686575 2.475440298507462
H -0.18475223880597014 4.424250746268656 1.901240298507462
H 0.57844776119403 4.189650746268656 3.511940298507462
H 1.1210477611940297 5.524350746268658 2.4432402985074617
N 3.00114776119403 -2.025349253731343 -2.490159701492538
N 1.7831477611940298 3.586450746268657 1.862540298507462
C -3.55075223880597 -3.8435492537313434 0.6444402985074619
H -2.62515223880597 -2.2736492537313433 1.7424402985074618
H -4.67195223880597 -1.3478492537313436 1.5102402985074619
H -4.83415223880597 -1.6757492537313432 -0.1945597014925382
H -3.7169522388059697 0.17335074626865676 -0.900559701492538
H -3.9132522388059705 -4.043149253731343 -0.34225970149253815
H -4.35435223880597 -3.9354492537313432 1.3449402985074619
H -2.78115223880597 -4.545049253731343 0.8904402985074619
H -5.24235223880597 1.138950746268657 1.5249402985074618
H -5.92805223880597 0.6501507462686567 -0.006059701492538094
H -4.89895223880597 2.059650746268657 0.08004029850746197
C -1.5192671388442562 4.112333304577659 -1.7603449464723187
O -2.201831894896489 4.377574401630753 -2.7378560782909935
O -1.7964913665340343 4.415520632678243 -0.5942164648027239
O -0.4456576066725044 3.499672065580103 -1.7859801382978702
O 5.620978056943335 -5.2769840109465855 -0.11059045266232914
H 5.217353059655456 -5.701192864968141 0.6614853639736271
H 6.416720658300401 -4.853136732854682 0.244528036774049
O -8.586708979558777 -1.227299086913296 -8.225582694756092
H -8.451253284391033 -2.1491362878393345 -8.491731687869855
H -7.783958281100498 -1.006441357831846 -7.729825572840805
O 0.5199962525308982 -10.38452727480253 -1.0173275412638474
H 1.1586124762032983 -11.014181081843509 -1.384305413949937
H 0.647583464775377 -9.584803250426084 -1.549422394092573
O 8.632156145163533 6.098501936035095 -1.594461007677127
H 7.809958287369 6.12952675831336 -1.082606047809898
H 8.755877117460713 7.011643116017253 -1.8941746222071192
O -8.89417740615131 1.8159256074949124 -5.2824508774428
H -7.951208413819971 1.628702035653148 -5.4037940706941185
H -9.255355752689683 0.985199606596662 -4.9383484832003175
O 3.715214295538944 3.6462699599983974 8.174675708166092
H 2.8323552159547702 3.350659946879203 8.44326819249776
H 3.579383022213712 4.563514783785112 7.893297417028834
O -2.2363630190400787 3.632897694382194 -10.338878063207193
H -1.529820348897439 2.997241187442069 -10.149918762424225
H -1.7692863068187652 4.401937955695599 -10.6985701060432
O -3.22761131022341 2.7793871367280523 3.233189940438546
H -2.6950978226506415 3.411930112291092 3.7384484153985844
H -3.3301139070600563 3.1997048720572048 2.3661327547180684
O -0.29934146401113937 7.587056968117992 -1.3444104285647565
H -0.46490160252445234 7.681046650280694 -2.2945278618762437
H -0.5798011213777783 8.436869798647162 -0.9727621029156515
O -0.7802735981222622 4.18680144952414 -7.172607490839508
H -0.47835893370778404 4.393369188774438 -6.275308955561245
H -0.27906389696642675 4.796797764333407 -7.734439561556719
O -1.683509762324252 -7.461648866494923 2.319261927842219
H -1.8625428528221997 -7.651087894173914 3.252550395679893
H -2.3914699325297497 -7.924508151859427 1.8464875380383052
O -0.16800025013062925 0.8206551099132278 -4.817715148958802
H 0.17823665417598766 -0.07444060796039054 -4.951472462181234
H 0.5706413746038335 1.3967953025931419 -5.065571907769983
O -5.592716346839262 -0.28056095965587513 9.443312672381357
H -5.141556621212047 -0.7922102501457671 10.13152576613442
H -6.305764464163186 0.17244251377023012 9.917983273687877
O 5.316387304030561 6.477372433718733 2.867970921241662
H 4.921574842564214 6.6049998201661815 1.992298763753782
H 5.422614147338216 7.377646086712525 3.210294089879288
O -2.7962963632750686 -6.487581839529502 -7.172103364712434
H -2.957672959334321 -7.435832672317484 -7.289343755624567
H -1.832940810928537 -6.422442335788402 -7.090464715069805
O -10.774552239486384 0.6146620607530906 4.812330627976516
H -9.96739445743459 0.6813101363588112 5.344328471760949
H -10.91055098709975 1.5145316140709788 4.479612921866579
O 0.29396312016363435 -3.440118096615727 7.356985205591922
H 0.9611677252790787 -3.8476058658684757 7.929487685693243
H -0.514525231161032 -3.93893446021695 7.548010767954597
O 7.062895175860762 -6.455179113842799 6.712503692834857
H 7.071577700250914 -6.3903758506200985 7.6792986595914625
H 6.621475565042161 -5.641070269720053 6.427306460369533
O 3.284634217550853 5.229670823858747 -5.598049000704243
H 3.2029389652453357 6.084736331216558 -6.046553427413354
H 3.4614044610238475 4.604301037069604 -6.31681659533675
O 1.1197727043043457 8.67300909320926 -6.768006637342752
H 1.4218481630390536 8.816059235876441 -7.677541920227982
H 0.22245359350733374 9.03866192371596 -6.7591542229320964
C -12.464271202005422 12.06174678001145 -7.820243475604942
O -12.385962360420445 12.085204386037589 -6.626034229555849
O -12.5425800435904 12.038289173985312 -9.014452721654033
O -11.082400957934173 -7.238341522461981 10.788481782056284
H -10.269388850474773 -7.6283787490292845 11.143234698768904
H -11.790385617253165 -7.722437886385064 11.239447830562614
O -11.514057642949444 9.534822017962727 9.519158427293966
H -10.581595726662849 9.65646000678668 9.753009515061372
H -11.68527762711965 8.601876640848422 9.717296219352423
O -4.572657981701692 -17.924612673649214 1.9519044457516248
H -5.138895069997342 -17.319720089656975 2.454346361369404
H -4.822715092628519 -17.767103187344006 1.0290696028361666
O -13.140937872611673 8.823491291935206 -5.6822435181257
H -13.657424482188778 9.51981812356356 -6.115068982466662
H -13.276677045311072 8.046890815200083 -6.245651470527566
O 15.545848505199675 -11.16794325416339 8.250015103530327
H 14.869022216555733 -11.388193628798662 7.592471717605496
H 15.145772972445773 -10.452811596441546 8.767207741254111
O -9.891622825148408 -7.722279260799706 15.524775652266396
H -10.648235582123377 -8.291114102037191 15.317576674766348
H -9.463145900786568 -7.581111257371128 14.667197046891118
O -3.956227135009325 -11.428093851155012 -2.6310889891297875
H -4.078865322086291 -10.687666308188607 -2.018149933768482
H -4.4018300443382 -12.16959593991003 -2.194540430697183
O 13.73193513320372 6.454113729947926 -4.993097730036342
H 12.830590135110292 6.373714333651245 -5.339624047055829
H 13.617826537871304 6.9160371157869225 -4.148960325115617
O -9.161462718435331 4.934150741702511 7.450440846029663
H -9.645109365687123 5.757587734144907 7.286109482682542
H -8.231118202346591 5.205113807136665 7.45023383362104
O -13.977309354665463 4.264946255764411 -8.482665154462573
H -14.066126292981618 3.3901341086746877 -8.889829268392589
H -13.358909268815326 4.120749434417766 -7.750715323644868
O -4.030458039897304 1.9726249819153376 -5.99002755858951
H -3.3580505286317868 1.3513132348985195 -5.672526048809441
H -4.113658304698344 1.7657348562462358 -6.933020737853104
O 3.937429624382374 1.7990550707003916 -14.772093519728378
H 3.9094212471852288 1.8197307460779077 -15.74047123743695
H 3.2713155075978957 2.450027466542328 -14.504719497855938
O 11.639190625939541 -9.438214275199265 2.6500700025553607
H 11.930579683237374 -8.742750614734847 3.2586668076410565
H 11.591499203186629 -8.99254765466504 1.790960733697547
O -3.1800333439390025 -13.956853287639502 16.574555169155733
H -2.9390889092722405 -13.730101755351006 17.485322361641245
H -3.9690290040565905 -13.421746693287911 16.401036509360733
O -5.762996267971702 -5.700029569077621 -8.733012943822011
H -5.400049170873298 -5.765540850812571 -9.629084946271192
H -5.024225074407443 -5.361127536004989 -8.20544827495299
O 0.03509696097394599 -0.6447462026097188 -18.458514440609655
H -0.20861735624494493 -1.150463446359348 -17.668691195917013
H -0.08569189521903642 -1.2737244339047713 -19.18567218214621
O -5.721355071529936 5.607367254222945 -3.72301313074836
H -5.374496989963992 6.358459425469849 -3.2185159766988973
H -5.348207956892917 4.832831885142635 -3.2760029103040216
O 8.588117758819013 11.737790534268846 2.677436252138223
H 7.648225910291676 11.563127143546797 2.8357504015795953
H 8.58646839693158 12.47199125874729 2.0450530454662763
O -15.307353311715907 15.70893137479369 0.4213958577952517
H -14.415227738653735 15.760971353812057 0.796057250751963
H -15.326291545767155 14.845999475495152 -0.019003761600633995
O 8.004354774182646 9.442219393889937 -9.150863113206645
H 8.022074119106593 9.402071177043284 -10.11887215366004
H 8.83392700590409 9.018598853250351 -8.883809758603247