194

C -5.0710522388059704 1.0783507462686561 0.47044029850746183
C -3.8153522388059704 0.1782507462686569 0.19534029850746193
C -4.11845223880597 -1.3219492537313435 0.5608402985074619
C -2.96945223880597 -2.3874492537313436 0.7034402985074619
C -2.52015223880597 0.7359507462686565 0.7384402985074618
C -2.20305223880597 0.7852507462686571 2.097440298507462
C -1.5755522388059702 1.205650746268656 -0.18965970149253808
C -0.9533522388059701 1.2695507462686564 2.508640298507462
H -2.91125223880597 0.4298507462686567 2.840840298507462
C -0.32655223880597006 1.6562507462686575 0.21554029850746192
H -1.7850522388059702 1.178550746268657 -1.2573597014925382
C 0.004447761194029898 1.6956507462686563 1.569740298507462
H -0.7158522388059702 1.2676507462686573 3.5705402985074617
H 0.3943477611940298 1.9193507462686572 -0.5551597014925382
C -1.76045223880597 -2.1592492537313435 -0.1734597014925381
C -0.5287522388059701 -1.936549253731343 0.464840298507462
C -1.8068522388059702 -2.121249253731343 -1.5681597014925381
C 0.6114477611940299 -1.614449253731343 -0.2582597014925381
H -0.4544522388059702 -1.954049253731343 1.5506402985074619
C -0.6479522388059701 -1.8270492537313432 -2.2998597014925384
H -2.74345223880597 -2.290549253731343 -2.092259701492538
C 0.5698477611940298 -1.5506492537313434 -1.6506597014925382
H 1.5072477611940298 -1.351949253731343 0.2991402985074618
H -0.7173522388059701 -1.7640492537313435 -3.3840597014925375
C 1.7791477611940298 -1.082849253731343 -2.4255597014925376
H 1.4739477611940297 -0.9102492537313429 -3.464259701492538
H 2.1252477611940295 -0.1337492537313434 -2.0010597014925384
C 1.3965477611940298 2.0964507462686566 1.997440298507462
H 1.51704776119403 1.8448507462686567 3.057640298507462
H 2.1256477611940294 1.5207507462686571 1.4165402985074618
C 3.94864776119403 -1.4275492537313434 -3.522959701492538
H 4.81734776119403 -2.087049253731343 -3.615159701492538
H 3.4305477611940303 -1.3641492537313429 -4.484459701492538
H 4.26984776119403 -0.441449253731343 -3.176459701492538
C 2.60904776119403 -3.4296492537313434 -2.8992597014925376
H 1.9825477611940296 -3.869549253731343 -2.119359701492538
H 2.06294776119403 -3.373349253731343 -3.845759701492538
H 3.5215477611940305 -4.019849253731343 -3.0234597014925377
C 3.7281477611940304 -2.060049253731343 -1.156659701492538
H 3.9048477611940298 -1.032549253731343 -0.8295597014925382
H 3.12924776119403 -2.623249253731343 -0.4404597014925382
H 4.68244776119403 -2.5769492537313434 -1.3005597014925383
C 3.1110477611940297 3.755250746268656 2.588740298507462
H 3.40124776119403 4.809350746268656 2.534540298507462
H 2.9823477611940303 3.461750746268656 3.634840298507462
H 3.86514776119403 3.1392507462686563 2.091540298507462
C 1.99744776119403 3.9574507462686572 0.40494029850746194
H 2.67914776119403 3.230350746268657 -0.04295970149253803
H 1.03214776119403 3.981150746268657 -0.10175970149253821
H 2.4399477611940297 4.958250746268657 0.368240298507462
C 0.7418477611940297 4.4992507462686575 2.475440298507462
H -0.18475223880597014 4.424250746268656 1.901240298507462
H 0.57844776119403 4.189650746268656 3.511940298507462
H 1.1210477611940297 5.524350746268658 2.4432402985074617
N 3.00114776119403 -2.025349253731343 -2.490159701492538
N 1.7831477611940298 3.586450746268657 1.862540298507462
C -3.55075223880597 -3.8435492537313434 0.6444402985074619
H -2.62515223880597 -2.2736492537313433 1.7424402985074618
H -4.67195223880597 -1.3478492537313436 1.5102402985074619
H -4.83415223880597 -1.6757492537313432 -0.1945597014925382
H -3.7169522388059697 0.17335074626865676 -0.900559701492538
H -3.9132522388059705 -4.043149253731343 -0.34225970149253815
H -4.35435223880597 -3.9354492537313432 1.3449402985074619
H -2.78115223880597 -4.545049253731343 0.8904402985074619
H -5.24235223880597 1.138950746268657 1.5249402985074618
H -5.92805223880597 0.6501507462686567 -0.006059701492538094
H -4.89895223880597 2.059650746268657 0.08004029850746197
C 0.3720998162763274 1.8026305388856332 -4.817380205535501
O -0.2210464677540711 2.03374568801226 -3.7750085001515212
O 0.2425159348787469 0.7793707399977239 -5.499127127612757
O 1.1937380606602814 2.5562514444677733 -5.351809349983303
O 7.191009018711014 0.9417416024235088 2.1340783015295948
H 6.359354832539139 0.45653401267672855 2.2431299699025096
H 7.188886764092902 1.2031006804119129 1.2009926287811667
O 0.8073835487205561 -3.6369548567239445 1.4664205827065078
H 1.3210231047359016 -4.060208795920719 0.7621494230309376
H 0.9697492308192106 -4.1946443600176835 2.242037593538929
O -4.572335048782765 0.8247843530893872 -7.3121101233421495
H -4.084183078012101 0.21125969446990078 -7.881550641393473
H -4.642268679698341 0.3549260675329524 -6.467536607855824
O -7.942242724334691 7.306102814740765 -2.714180106680627
H -7.655359050383712 6.8798672123964355 -1.8926033751366051
H -8.57845238672866 7.975520339184882 -2.4207872169514117
O -6.309631138207628 -4.07691190286713 -1.3721087369442704
H -6.850760056474199 -3.514121280164802 -1.9460543491010136
H -6.887498787347043 -4.2661014008875755 -0.6176299378936561
O -3.7765064158395134 -7.891528252025582 -0.8026327233441359
H -4.664756292626055 -7.545073331453036 -0.6295763703842798
H -3.4211303285182613 -7.2966915212609065 -1.4800093132802143
O 2.987520980045751 1.1031761556728081 5.680201191858074
H 3.604530838271296 0.8326174546483749 4.983735700212964
H 2.1476269482770367 0.695971119238465 5.419962804985965
O -5.667704244346021 3.490438560216108 -5.165287220728683
H -5.856528232412326 3.735883262448666 -4.247098919465425
H -5.984823379689131 4.247747306142595 -5.6799529973667715
O 3.0321577885220687 -4.798962367864148 1.7916465854923658
H 3.074460168987828 -4.791618697800798 2.759698203959548
H 3.9548462187979414 -4.690582816918775 1.5162162351823025
O 2.843487020174277 10.610753068021827 -3.0035721586488098
H 2.504134762125083 10.247082648454047 -2.1719765671571825
H 2.354421084960085 10.128218279166282 -3.686899776162693
O 1.7644204048012857 8.142895235676512 3.952068146244706
H 0.8548628042844669 8.381523812472171 3.7181264214956413
H 2.038669915631695 7.54238917310106 3.242743383587003
O 6.0758917165453585 -8.857651211273518 6.149163061063788
H 6.357942364828575 -7.932323009362032 6.205576777926567
H 5.3223582735226085 -8.910075071889434 6.756123548562277
O 2.8676980834473063 4.057649827987547 -7.974818517826579
H 2.551438895620718 4.968399346175804 -8.07219817758736
H 2.092123305079429 3.5166727607748367 -8.186453865085843
O -0.015256684493986539 -0.8811611786658413 5.263556499880563
H 0.23437500451710402 -1.7515883824033738 4.9185813417385145
H -0.788638036170213 -1.062353644428979 5.8185452561001165
O -7.243476346974022 6.617545064104607 5.133310746358898
H -6.542595435074492 6.773253544680467 4.482551056986823
H -7.219200770119912 5.659840320783856 5.278824543949831
O -2.609852825554561 -5.884711102730233 -4.815435765984859
H -2.512420676696346 -6.331477170467453 -5.66976264370058
H -1.7879211447632635 -6.093940947039439 -4.346806777698884
O -4.840692160403449 4.595105806279891 7.341144337722777
H -4.172652499967592 4.9852211141162535 6.757620203194919
H -4.735336659900103 5.079073019634377 8.173993603323451
O -4.5673790013468825 -6.822599252019592 6.719421601177816
H -3.6572334988057533 -6.725985156644375 6.401194893186505
H -4.931049696741503 -7.537041153613539 6.175107042436256
O 5.162897587786444 6.929918758150018 1.6930640823018284
H 5.143883025801651 7.300691760603236 0.7980036463622466
H 6.1033272098638465 6.764493143453635 1.857953245747087
O 4.776893822804949 -1.582910294991719 -8.25611643290203
H 4.792294840288291 -2.4696661656833774 -8.646493419101725
H 5.635717102534806 -1.50693261131796 -7.813836080548887
C -9.589595896747149 -12.89852632499559 4.082605685158196
O -8.585895788106054 -13.502846879253632 4.327964640395429
O -10.593296005388245 -12.294205770737545 3.8372467299209627
O 8.325339074777519 6.976220494833605 -10.233911033784882
H 8.763612724031187 7.001392194118571 -11.097768632480976
H 8.918500508074972 7.479091225042194 -9.6557739505183
O -10.630053131421178 10.35304887959674 -8.221836826595052
H -10.676085950079678 10.366028343274516 -7.254014596002578
H -11.497751752040577 10.681153971810181 -8.501851284326799
O 17.01033808265625 5.187782121606082 -7.577856323248013
H 16.631123033386892 6.037664804085054 -7.307925351831275
H 16.712925082247654 5.0790807552789285 -8.493657319341906
O 13.350553948456303 -1.2476838799650771 3.009766162845685
H 13.454286910023985 -1.6063593228762745 2.1155856686294134
H 12.416353940031781 -0.9940345251654512 3.0532896435125116
O 15.785357400777993 6.619209022621403 -13.328665166769774
H 15.28202603650173 6.656223396920467 -14.155862138917911
H 15.436679092885877 7.359175249063135 -12.809208368151188
O 7.162452473052642 1.3684257161690438 -6.925521191980219
H 7.316980247055727 1.4464571497359386 -7.878935907273173
H 8.051980392636525 1.3892003402703441 -6.541762883178675
O 8.92777804516922 -4.4529694070824695 -4.629964087595766
H 8.397936627954351 -4.923603940919863 -5.290826073991868
H 8.613507225187721 -3.5380831194940847 -4.686345616405285
O 14.036181336461025 9.1148549350911 7.8394267106853155
H 14.067499587170202 9.143196947414753 8.807508966699734
H 14.712853688260115 9.751685205330137 7.56461099148796
O -6.681432714640492 -14.704004184215005 1.3203342936407672
H -6.45741731346326 -14.930159013718765 2.2355601947316015
H -6.235039127701974 -15.384968189719908 0.7949937059770296
O 12.110956784848916 -9.764983451711085 -0.09799027149897377
H 11.911185271517693 -9.04024940635921 -0.7093978792936921
H 12.592902268334544 -10.404947467964666 -0.6430926042296186
O 1.2661041201868783 -8.145296561418547 -11.302682680085296
H 1.8609477553520088 -8.810638309868121 -11.680106532502702
H 0.652851535731402 -8.661519707584858 -10.758259246239145
O -11.62463286433036 18.569623558736566 2.087749140340077
H -10.710387101174122 18.340257005367718 2.312500170697148
H -11.533962584273805 19.276315456823237 1.4309939303926213
O -0.8798204063781181 -1.2301701027283305 -15.310254158162053
H -0.9919770320798484 -1.060117994102053 -16.25760336967962
H -1.6403603813029026 -1.784874915109429 -15.08037709979681
O -4.817603605322116 -8.227134381711647 -8.2979322836409
H -5.651778542664333 -8.517377106602291 -8.696528183592422
H -4.3918754371012305 -9.051829320264883 -8.019372183468668
O -9.573695923977834 16.731475823935753 6.170304794598183
H -9.245809941766776 16.88197536074275 5.2709672445145825
H -10.400112659987041 16.24273982322608 6.039406191266426
O 9.384900461164616 -12.46913432662986 -7.336323599856009
H 9.733352002562103 -12.836891461520949 -8.162340288509704
H 8.631695043380134 -11.929414947463119 -7.6197782429154834
O 2.0215549650574633 -8.848969449075138 8.578464122201447
H 1.4080113804545822 -8.121285959747851 8.760146168791396
H 2.894982579997669 -8.468310454299562 8.75505652140456
O 3.2857407547854116 13.180027260239154 -8.13544921490752
H 3.1422657754737866 12.816901523013282 -9.022309962813129
H 3.121711436840555 12.42891350375622 -7.545631911010256
O -5.332298201089692 2.74352595777695 -15.55228405616479
H -5.285810276234931 3.5166675281726727 -16.13457122060235
H -6.166767929685135 2.3160463819729067 -15.7969949644387
O -12.201974459746996 18.881927693268473 -6.331375628816723
H -12.486901704216878 19.02464505463347 -7.2464797633412115
H -12.658287613227785 18.068581422540927 -6.068301315828901