194

C -5.0710522388059704 1.0783507462686561 0.47044029850746183
C -3.8153522388059704 0.1782507462686569 0.19534029850746193
C -4.11845223880597 -1.3219492537313435 0.5608402985074619
C -2.96945223880597 -2.3874492537313436 0.7034402985074619
C -2.52015223880597 0.7359507462686565 0.7384402985074618
C -2.20305223880597 0.7852507462686571 2.097440298507462
C -1.5755522388059702 1.205650746268656 -0.18965970149253808
C -0.9533522388059701 1.2695507462686564 2.508640298507462
H -2.91125223880597 0.4298507462686567 2.840840298507462
C -0.32655223880597006 1.6562507462686575 0.21554029850746192
H -1.7850522388059702 1.178550746268657 -1.2573597014925382
C 0.004447761194029898 1.6956507462686563 1.569740298507462
H -0.7158522388059702 1.2676507462686573 3.5705402985074617
H 0.3943477611940298 1.9193507462686572 -0.5551597014925382
C -1.76045223880597 -2.1592492537313435 -0.1734597014925381
C -0.5287522388059701 -1.936549253731343 0.464840298507462
C -1.8068522388059702 -2.121249253731343 -1.5681597014925381
C 0.6114477611940299 -1.614449253731343 -0.2582597014925381
H -0.4544522388059702 -1.954049253731343 1.5506402985074619
C -0.6479522388059701 -1.8270492537313432 -2.2998597014925384
H -2.74345223880597 -2.290549253731343 -2.092259701492538
C 0.5698477611940298 -1.5506492537313434 -1.6506597014925382
H 1.5072477611940298 -1.351949253731343 0.2991402985074618
H -0.7173522388059701 -1.7640492537313435 -3.3840597014925375
C 1.7791477611940298 -1.082849253731343 -2.4255597014925376
H 1.4739477611940297 -0.9102492537313429 -3.464259701492538
H 2.1252477611940295 -0.1337492537313434 -2.0010597014925384
C 1.3965477611940298 2.0964507462686566 1.997440298507462
H 1.51704776119403 1.8448507462686567 3.057640298507462
H 2.1256477611940294 1.5207507462686571 1.4165402985074618
C 3.94864776119403 -1.4275492537313434 -3.522959701492538
H 4.81734776119403 -2.087049253731343 -3.615159701492538
H 3.4305477611940303 -1.3641492537313429 -4.484459701492538
H 4.26984776119403 -0.441449253731343 -3.176459701492538
C 2.60904776119403 -3.4296492537313434 -2.8992597014925376
H 1.9825477611940296 -3.869549253731343 -2.119359701492538
H 2.06294776119403 -3.373349253731343 -3.845759701492538
H 3.5215477611940305 -4.019849253731343 -3.0234597014925377
C 3.7281477611940304 -2.060049253731343 -1.156659701492538
H 3.9048477611940298 -1.032549253731343 -0.8295597014925382
H 3.12924776119403 -2.623249253731343 -0.4404597014925382
H 4.68244776119403 -2.5769492537313434 -1.3005597014925383
C 3.1110477611940297 3.755250746268656 2.588740298507462
H 3.40124776119403 4.809350746268656 2.534540298507462
H 2.9823477611940303 3.461750746268656 3.634840298507462
H 3.86514776119403 3.1392507462686563 2.091540298507462
C 1.99744776119403 3.9574507462686572 0.40494029850746194
H 2.67914776119403 3.230350746268657 -0.04295970149253803
H 1.03214776119403 3.981150746268657 -0.10175970149253821
H 2.4399477611940297 4.958250746268657 0.368240298507462
C 0.7418477611940297 4.4992507462686575 2.475440298507462
H -0.18475223880597014 4.424250746268656 1.901240298507462
H 0.57844776119403 4.189650746268656 3.511940298507462
H 1.1210477611940297 5.524350746268658 2.4432402985074617
N 3.00114776119403 -2.025349253731343 -2.490159701492538
N 1.7831477611940298 3.586450746268657 1.862540298507462
C -3.55075223880597 -3.8435492537313434 0.6444402985074619
H -2.62515223880597 -2.2736492537313433 1.7424402985074618
H -4.67195223880597 -1.3478492537313436 1.5102402985074619
H -4.83415223880597 -1.6757492537313432 -0.1945597014925382
H -3.7169522388059697 0.17335074626865676 -0.900559701492538
H -3.9132522388059705 -4.043149253731343 -0.34225970149253815
H -4.35435223880597 -3.9354492537313432 1.3449402985074619
H -2.78115223880597 -4.545049253731343 0.8904402985074619
H -5.24235223880597 1.138950746268657 1.5249402985074618
H -5.92805223880597 0.6501507462686567 -0.006059701492538094
H -4.89895223880597 2.059650746268657 0.08004029850746197
C -0.198745179701319 2.5770413341158527 -3.5678362481320702
O -0.18475975139919631 3.6206823863417776 -4.20218099706909
O 0.25503037061489897 1.496941026921275 -3.962934388387619
O -0.6688445770821189 2.439490157723269 -2.432611770394198
O -8.291989402108584 1.6361304778377042 2.0735332884042705
H -9.019629901894593 1.377526598893474 1.4881866442982623
H -7.661418120680226 2.0752161434276535 1.483155797631435
O 3.7554948777703827 -1.8972077674914785 -8.28522735918101
H 2.8841318373823803 -1.8907605825392824 -7.861373324692755
H 3.740854714793433 -2.6927168842755886 -8.838321252694012
O 6.119239799292852 -5.65731609496942 -4.775322365767026
H 7.048722917006846 -5.718243640282022 -5.042373531289387
H 5.931561497634745 -4.7068913400059476 -4.796096978623889
O -5.731953184465258 2.6694777558756924 7.471739602347941
H -6.698691916622082 2.621614404454622 7.517485424436538
H -5.542122726236386 3.618550672358934 7.518504339347199
O 7.747624915972429 1.6480719794082612 0.48924948857441564
H 8.34990540035815 0.8983172853412349 0.37053355134372223
H 6.957138421717122 1.252683278572633 0.8864406540746912
O -5.130545873178784 -9.74127333458436 0.8078970731276971
H -5.010798429585385 -9.023209582042908 0.1683563363963021
H -4.240166776378032 -10.10735685121932 0.9182141938681221
O -7.984417709360585 1.5299297390911981 -5.525849586492364
H -7.765333022111811 2.2593475911797394 -6.124947953847547
H -8.337467256326763 1.9714366599795168 -4.738836498612187
O 3.9556209469617736 -9.709623986048157 -2.5202532525178194
H 3.87601491518702 -10.135883850492409 -3.3868170208401778
H 4.472194052284184 -10.339884603565187 -1.995957796534634
O -4.641507404950301 3.923380523570707 10.354510406599083
H -4.3273685773106125 3.3343211750597876 11.056858780129664
H -3.860629475313025 4.44808477294288 10.122396094252377
O 1.7839925272091053 -4.889403279749309 1.273322837101111
H 1.7674974828636718 -4.885249970891827 0.30446886439027054
H 0.8484803540051409 -4.854847680305246 1.5234924368414802
O -9.54291257220552 0.3303085398497254 8.704261833017316
H -9.725119860337314 -0.37736416825340857 9.340632164866339
H -8.84242376509235 -0.03444380525717161 8.142805599506469
O -3.3759599528170945 -2.352794076670733 -4.7558468485016165
H -3.499952710013232 -3.312825088839733 -4.7118740303446325
H -2.48624349605556 -2.215047616099762 -4.397527879609555
O 1.0030278235783603 8.508802321745645 0.9273599002336494
H 0.3665944222689433 9.208073712737303 1.1393490611318395
H 0.7867534162847376 8.264202370034571 0.015023236127283734
O -10.086905497799865 3.420579119328273 -2.1695193285260275
H -9.347026317047664 3.1084330170321643 -2.7118393130469762
H -9.670892103572077 3.6824015787738937 -1.3344481939195683
O 10.490567394848247 0.7635653770415807 2.99190827607421
H 9.946576248151047 0.37915793649100626 2.2881527014146386
H 10.255226445879524 0.24785082138095627 3.777793178027585
O -5.528437334153012 -2.4512412446060052 3.2862808491865056
H -5.6744428044282635 -2.8933603824994862 2.436468853826339
H -6.410112179947097 -2.4169922617044337 3.686828496494766
O 6.82147537891678 -5.991750846386303 -2.4075963669821427
H 6.887181665558723 -5.903485507863116 -1.444861060259098
H 5.906769510771824 -6.275706527111744 -2.5547163536084687
O 3.978624389782185 -1.7060136887334103 2.6279770563805034
H 3.8023509479251105 -1.653025817164074 1.6766162856618378
H 3.0965867416223105 -1.730696953270777 3.02842963532135
O 3.2592544282204257 -7.380510490744539 1.3252510270812077
H 2.2975954114544868 -7.263529368200232 1.3030089646534018
H 3.463429901737019 -7.461413099015844 2.269035477201665
O 1.7580544657618473 -3.99912566194757 -7.858519151342172
H 1.5120185006093863 -4.1326342748119 -6.930828949258233
H 1.2254532484602962 -3.238207368391672 -8.134745938893426
C -5.578177663668001 11.915560534393798 14.591208007007246
O -6.079303928069038 10.890473721313453 14.229423886188979
O -5.0770513992669635 12.94064734747414 14.952992127825516
O 7.503538229356529 13.84939372017812 8.483738117169835
H 7.742091391858715 14.787680471414612 8.442778160940934
H 6.719432170931304 13.831869006528919 9.05280095891262
O -7.522987002871301 9.317073300712876 5.009319629159616
H -7.459097778867196 9.410537506742099 4.046952772837411
H -7.828505411176915 8.406300161836818 5.136255581467279
O -3.215580840395294 -18.056676972346573 -5.549328012638654
H -3.3714971749242846 -17.731082316375016 -6.4485752386726345
H -2.9331465596906643 -18.97456896444063 -5.67842918316962
O 5.51576137616841 -6.195113485029264 -14.01995613992504
H 5.4596479657984425 -6.079253136860641 -13.059542155333551
H 6.386887195845727 -6.59684714283652 -14.156747290137048
O 4.912081080276995 -1.0539940471988807 5.389289454640433
H 4.621091427454415 -1.9614085532020777 5.565048645424779
H 4.838870771324872 -0.9669635380320784 4.4269860277332524
O -16.174397430319495 8.49861039969347 -1.5113836454081389
H -16.156168324639353 7.578515666527301 -1.2079685195393406
H -15.394826812353113 8.89739769860295 -1.0964134222209867
O -2.2822200317002066 11.430854795298323 -11.197715326158697
H -1.776601344624129 10.71975709887386 -11.619209295652077
H -2.9612194615175738 11.654701562122234 -11.851790508068373
O -0.5529202133273103 -4.595445467043557 -6.167385049362547
H -0.48251142776372324 -5.5009853660308154 -5.829735155008045
H -0.9837385964358134 -4.699773085214188 -7.029053902903523
O -8.539192011723564 -14.501464039478812 -4.546604445289972
H -8.033216006255746 -14.617383364835218 -5.364845454284111
H -8.663126377702412 -13.542602509491733 -4.4818990858499665
O -18.377783727520537 10.906814584479996 2.976405948046582
H -17.64736491880425 10.888943438612442 2.3399027328788424
H -19.129374620242622 10.549127949359006 2.4802876704826042
O 0.2808016150628929 -15.812312010887577 -5.460301958069386
H -0.5082923988857346 -15.822723685737007 -6.022609339380777
H 0.06834823177084148 -16.433188224472115 -4.74732353509104
O -12.863081311549898 14.388817331002006 8.555855293549362
H -13.050163159073334 14.21888444645026 7.62039254497241
H -13.371245239124423 13.709027568922373 9.023420525772357
O 4.954030933362206 19.221407030828797 -6.575627783703007
H 5.276523959109276 18.496822765553294 -6.0189023147691145
H 4.152287426159593 19.524745663099825 -6.123792673147843
O 11.062965571861277 15.847454435645304 -2.2102380300024773
H 11.336642578167272 15.264724247692167 -1.4860186011223329
H 10.602834383993345 16.5744925246757 -1.7645286500806767
O -4.9793167923421535 14.193805807254137 -6.847006095423698
H -5.63518072266873 13.945775149509771 -6.178208177801735
H -4.290123138677359 13.51812059600707 -6.760846085267167
O -6.677516490391967 11.454935440902783 -12.418359756771578
H -6.625463952878722 11.458390114581094 -13.38595779080648
H -7.6248191032106964 11.36522532301995 -12.235242857507044
O -5.394539970776481 -15.285815170356809 -1.5351627160322945
H -5.547236369661702 -15.576633084974555 -2.4467964731984457
H -4.520481375158521 -15.643708102591944 -1.3186074926307387
O 0.43013335629401395 12.292476687076666 7.942340566658611
H 0.2991748622576298 12.903828553675055 8.682655448952888
H -0.3984506743832954 12.348579092798598 7.443078142197533
O 18.068942563678515 -3.8254212820687012 8.487487543152007
H 18.848685392260293 -3.6310934171004803 7.946003324478755
H 18.018316519049513 -4.793097460301356 8.48616014484435
O 0.47294498735622703 -11.401742482437998 0.03429606023565679
H -0.0889990539212362 -11.533637849342412 0.8126210974546213
H 0.8528482256790091 -12.277659291543808 -0.13124915213171473