194

C -5.0710522388059704 1.0783507462686561 0.47044029850746183
C -3.8153522388059704 0.1782507462686569 0.19534029850746193
C -4.11845223880597 -1.3219492537313435 0.5608402985074619
C -2.96945223880597 -2.3874492537313436 0.7034402985074619
C -2.52015223880597 0.7359507462686565 0.7384402985074618
C -2.20305223880597 0.7852507462686571 2.097440298507462
C -1.5755522388059702 1.205650746268656 -0.18965970149253808
C -0.9533522388059701 1.2695507462686564 2.508640298507462
H -2.91125223880597 0.4298507462686567 2.840840298507462
C -0.32655223880597006 1.6562507462686575 0.21554029850746192
H -1.7850522388059702 1.178550746268657 -1.2573597014925382
C 0.004447761194029898 1.6956507462686563 1.569740298507462
H -0.7158522388059702 1.2676507462686573 3.5705402985074617
H 0.3943477611940298 1.9193507462686572 -0.5551597014925382
C -1.76045223880597 -2.1592492537313435 -0.1734597014925381
C -0.5287522388059701 -1.936549253731343 0.464840298507462
C -1.8068522388059702 -2.121249253731343 -1.5681597014925381
C 0.6114477611940299 -1.614449253731343 -0.2582597014925381
H -0.4544522388059702 -1.954049253731343 1.5506402985074619
C -0.6479522388059701 -1.8270492537313432 -2.2998597014925384
H -2.74345223880597 -2.290549253731343 -2.092259701492538
C 0.5698477611940298 -1.5506492537313434 -1.6506597014925382
H 1.5072477611940298 -1.351949253731343 0.2991402985074618
H -0.7173522388059701 -1.7640492537313435 -3.3840597014925375
C 1.7791477611940298 -1.082849253731343 -2.4255597014925376
H 1.4739477611940297 -0.9102492537313429 -3.464259701492538
H 2.1252477611940295 -0.1337492537313434 -2.0010597014925384
C 1.3965477611940298 2.0964507462686566 1.997440298507462
H 1.51704776119403 1.8448507462686567 3.057640298507462
H 2.1256477611940294 1.5207507462686571 1.4165402985074618
C 3.94864776119403 -1.4275492537313434 -3.522959701492538
H 4.81734776119403 -2.087049253731343 -3.615159701492538
H 3.4305477611940303 -1.3641492537313429 -4.484459701492538
H 4.26984776119403 -0.441449253731343 -3.176459701492538
C 2.60904776119403 -3.4296492537313434 -2.8992597014925376
H 1.9825477611940296 -3.869549253731343 -2.119359701492538
H 2.06294776119403 -3.373349253731343 -3.845759701492538
H 3.5215477611940305 -4.019849253731343 -3.0234597014925377
C 3.7281477611940304 -2.060049253731343 -1.156659701492538
H 3.9048477611940298 -1.032549253731343 -0.8295597014925382
H 3.12924776119403 -2.623249253731343 -0.4404597014925382
H 4.68244776119403 -2.5769492537313434 -1.3005597014925383
C 3.1110477611940297 3.755250746268656 2.588740298507462
H 3.40124776119403 4.809350746268656 2.534540298507462
H 2.9823477611940303 3.461750746268656 3.634840298507462
H 3.86514776119403 3.1392507462686563 2.091540298507462
C 1.99744776119403 3.9574507462686572 0.40494029850746194
H 2.67914776119403 3.230350746268657 -0.04295970149253803
H 1.03214776119403 3.981150746268657 -0.10175970149253821
H 2.4399477611940297 4.958250746268657 0.368240298507462
C 0.7418477611940297 4.4992507462686575 2.475440298507462
H -0.18475223880597014 4.424250746268656 1.901240298507462
H 0.57844776119403 4.189650746268656 3.511940298507462
H 1.1210477611940297 5.524350746268658 2.4432402985074617
N 3.00114776119403 -2.025349253731343 -2.490159701492538
N 1.7831477611940298 3.586450746268657 1.862540298507462
C -3.55075223880597 -3.8435492537313434 0.6444402985074619
H -2.62515223880597 -2.2736492537313433 1.7424402985074618
H -4.67195223880597 -1.3478492537313436 1.5102402985074619
H -4.83415223880597 -1.6757492537313432 -0.1945597014925382
H -3.7169522388059697 0.17335074626865676 -0.900559701492538
H -3.9132522388059705 -4.043149253731343 -0.34225970149253815
H -4.35435223880597 -3.9354492537313432 1.3449402985074619
H -2.78115223880597 -4.545049253731343 0.8904402985074619
H -5.24235223880597 1.138950746268657 1.5249402985074618
H -5.92805223880597 0.6501507462686567 -0.006059701492538094
H -4.89895223880597 2.059650746268657 0.08004029850746197
C 0.7495507280262084 2.3352685964491053 -3.3554368517728435
O 0.7441749496826024 3.547761309199683 -3.502433522258758
O -0.10970194232958486 1.560796565563759 -3.791910660795523
O 1.615087640640243 1.69507743019677 -2.747448769689782
O 5.245303674860066 5.977117937593631 -6.27544436688806
H 5.270705215104537 5.975681340545838 -7.244113585373984
H 4.667632087449142 5.230917710169849 -6.055347338305574
O 4.396833715755906 9.59154083184074 -5.136613920061388
H 4.449902225080709 9.787878791716164 -6.084032779769173
H 4.550203174780061 10.448472779325101 -4.711046779977357
O 1.1421287378578482 7.451357336679678 6.572703700703916
H 1.2682961279851273 7.195079594615924 5.646760470537413
H 2.037334878404334 7.653506536412674 6.883675743298058
O -9.981681487474376 -0.6823617252333554 -1.3611864831311657
H -9.485987219085061 -0.4350591179577705 -2.1562311168597894
H -10.322285741793575 0.16063268490415616 -1.0260579843182907
O 9.945597408989324 -1.7113233422848073 -3.003965614500351
H 10.566170213072683 -1.1246087609953173 -3.4618113874789955
H 10.05767865469149 -1.4861845219302858 -2.0681706314879262
O -6.739172656929712 -2.0963212120699675 -4.231215833054868
H -7.678444404561061 -1.9410370869657827 -4.411833610397471
H -6.476368803895927 -2.7458224976912287 -4.900576841111749
O 6.841919276613319 0.4028195841477615 3.7242039612394877
H 6.9719901760065035 0.3895225896942708 4.684345673680705
H 6.223899708418049 1.1354522626404568 3.581855388951773
O 1.174113467380462 8.315366275989552 0.1291487972427965
H 2.027366218894154 8.589938633693517 0.4973024598881639
H 1.0190619124021545 7.443546620137462 0.5226604835606881
O -7.1930463511645755 -4.716779026660221 1.4627638065094515
H -6.826552010851671 -3.954419910045193 0.9900505395784667
H -7.807077953380529 -4.323417540930141 2.100881254417226
O -4.109186912322981 0.6090164483771037 6.316613019267323
H -4.248943950347751 0.16164114130688328 7.16472307217695
H -4.900427161399564 0.3885562679419978 5.802513688997628
O 10.071705701107593 -4.80010122215166 -0.17471122083605817
H 9.351979748087654 -4.556140315960873 -0.7759141696812129
H 9.736840927370816 -4.557843034113329 0.7017238868237161
O -6.362450161991711 6.698033701567578 6.722056526997351
H -5.654055803443857 6.8057894055156885 7.374385813434977
H -6.079333025564523 7.247895945911618 5.9760953057490855
O 0.8571745767871418 -5.910614093315711 0.46194256654399357
H 0.7926318826889891 -6.1752260087899895 1.391879194345903
H 1.5106830585732203 -6.521538247196186 0.08957139856897478
O -2.0569633037174055 0.9737750707680479 -6.983711207423202
H -2.026562312323382 0.899218375477153 -7.94936354434864
H -2.8079096821671445 0.416638417627524 -6.729466776371907
O 5.184506585274646 1.4481842808389223 -0.9233518141095106
H 5.241669689566856 0.6565105623214262 -0.3675168927377429
H 4.5089916668486 1.9906335192272901 -0.4893122271410725
O -6.138403515568497 0.9736758983951406 -3.7166914957954895
H -6.348823670964471 0.7212855780369751 -2.8051050537656415
H -5.575343690796075 1.7562071068194076 -3.618862635691198
O -1.5996500284177801 6.221202176904011 6.2092571813365
H -1.1197101292689222 6.482400611378577 7.009507409660753
H -2.5294888177884034 6.226086162983359 6.481906987428035
O 3.134257507107975 1.7659072183755424 -5.006160843587718
H 2.394351249119347 1.840874608766001 -5.6273580559666145
H 3.773375244460346 1.2044092641770687 -5.470068711092155
O 5.018068528727463 -8.628584852392297 -6.162650660987712
H 5.577597808314179 -8.148118260275162 -6.791177666011774
H 5.482068851027023 -8.534919466121167 -5.317137538309784
O -1.9042295902869788 6.0160933239960075 -7.035079407352646
H -1.2960260876078151 5.511547404908587 -7.595872837914229
H -2.750993169562694 5.55563128227186 -7.134719224912743
C 8.761186150090033 11.912653310956317 18.257335740365626
O 9.78502253142161 11.802792165014361 18.867669952231704
O 7.73734976875846 12.022514456898275 17.64700152849955
O -7.129446373255876 -7.064387195624405 7.84913749685134
H -6.723594446364476 -7.272681784019541 8.704043886337253
H -7.085383462801358 -6.097717091706057 7.79844909173963
O -1.6308267936043899 12.905318368844842 19.018646637392365
H -1.7935634961583724 13.027132623392994 18.071205129999566
H -2.1524194170341744 12.121197094657898 19.24680646481841
O -9.6317871516603 10.755866252690526 -6.23375934483538
H -9.94654998230697 10.051023559599216 -6.8194969100803355
H -9.191467953712678 11.378137241985481 -6.831973156194363
O 8.336328269080372 8.666875406333977 -14.59971825634063
H 8.441930006813235 8.453021802150948 -15.538910603980732
H 7.685556861956668 8.02180969417807 -14.28452189378067
O -1.5701141298907775 -15.28146803681411 -1.1648266289841454
H -0.9358133756865317 -16.006323246915688 -1.0589265132877141
H -2.4252927014287016 -15.686384932196628 -0.9558437040449625
O -11.416360849287663 -10.027418075833825 -3.2616851229495825
H -11.980474787060787 -9.413358491362285 -3.7553182345099194
H -11.009108242515966 -10.575405160971899 -3.949302322486894
O 5.592301602791453 -6.858235888055184 4.15396454452681
H 6.177742631177835 -7.481173810837153 4.610225986621124
H 5.80020229631393 -6.002556055589134 4.558379270079363
O -12.431677939806338 -2.9457301564355274 7.955033349796627
H -12.945340192211376 -3.764171203280862 8.02764671077722
H -11.671937274053368 -3.0937133587639147 8.53800593657054
O -8.369178292387744 -9.369276232903632 -7.892836144151056
H -8.539367969786944 -9.583113837772355 -8.822500766125437
H -8.254412158101662 -10.234043607830522 -7.47097352909364
O 12.458003084021831 7.121690920288798 -11.859243191607536
H 12.714433638826705 6.673983295064502 -12.67946792287238
H 11.951963866294834 6.451844404306399 -11.375309415716156
O 5.133413988410364 -3.152701883921921 -20.663514781808516
H 5.717454592867158 -2.8552066351726726 -19.949819814600986
H 4.907658517531073 -2.337571950330931 -21.13633568133816
O -2.51033289362977 8.530606769603933 16.878855462447458
H -1.708438846265099 8.341060510811465 16.36894810862827
H -2.2004372679096083 8.57071363629844 17.79608939373405
O 8.256239434533626 -7.2843304094387005 -15.059678140731393
H 8.24624745556007 -7.211901079500606 -16.025919057594738
H 7.318422909741624 -7.30975902916675 -14.81715907874702
O 10.949643363500748 -2.8159918892914906 17.476295890192706
H 10.681349426805195 -3.324803174545357 16.696490275676677
H 11.21845271906204 -3.49237735166807 18.115988145068705
O -16.844943478769018 2.864322202622308 6.255212413122865
H -16.307008298934388 2.6155306651537247 7.021825659864859
H -16.85554614913629 3.8329176390581186 6.281143247987965
O -0.8875773753326541 -13.73083570359689 0.9077896784337873
H -0.6234105209460248 -13.84737091560767 1.8327776644666207
H -1.6034212488406614 -14.372507767521858 0.7861901083715386
O 2.8531319588100947 2.69465366519297 16.05477056205589
H 2.8641244431704758 3.5560739359211913 15.611147254095064
H 3.7634208432298086 2.5803679981408814 16.366659769160545
O -17.674360329809836 -2.1278068135385757 -0.26716395642824686
H -18.178615162378748 -2.3587143155412402 0.52742785466081
H -18.30306368609286 -2.265413228319355 -0.9915661297474863
O 1.079014596592569 15.663016793591574 -0.8544533773040479
H 1.090021269318438 15.112046264676412 -1.6514964666803087
H 0.14848854397792355 15.91521114271366 -0.7570818210040003
O 4.434390620348903 -4.287920467679378 8.292652734338333
H 4.2944953806462385 -3.861923551865735 9.151677359436938
H 5.290001752624978 -3.942529066542395 7.99668598849366