194

C -5.0710522388059704 1.0783507462686561 0.47044029850746183
C -3.8153522388059704 0.1782507462686569 0.19534029850746193
C -4.11845223880597 -1.3219492537313435 0.5608402985074619
C -2.96945223880597 -2.3874492537313436 0.7034402985074619
C -2.52015223880597 0.7359507462686565 0.7384402985074618
C -2.20305223880597 0.7852507462686571 2.097440298507462
C -1.5755522388059702 1.205650746268656 -0.18965970149253808
C -0.9533522388059701 1.2695507462686564 2.508640298507462
H -2.91125223880597 0.4298507462686567 2.840840298507462
C -0.32655223880597006 1.6562507462686575 0.21554029850746192
H -1.7850522388059702 1.178550746268657 -1.2573597014925382
C 0.004447761194029898 1.6956507462686563 1.569740298507462
H -0.7158522388059702 1.2676507462686573 3.5705402985074617
H 0.3943477611940298 1.9193507462686572 -0.5551597014925382
C -1.76045223880597 -2.1592492537313435 -0.1734597014925381
C -0.5287522388059701 -1.936549253731343 0.464840298507462
C -1.8068522388059702 -2.121249253731343 -1.5681597014925381
C 0.6114477611940299 -1.614449253731343 -0.2582597014925381
H -0.4544522388059702 -1.954049253731343 1.5506402985074619
C -0.6479522388059701 -1.8270492537313432 -2.2998597014925384
H -2.74345223880597 -2.290549253731343 -2.092259701492538
C 0.5698477611940298 -1.5506492537313434 -1.6506597014925382
H 1.5072477611940298 -1.351949253731343 0.2991402985074618
H -0.7173522388059701 -1.7640492537313435 -3.3840597014925375
C 1.7791477611940298 -1.082849253731343 -2.4255597014925376
H 1.4739477611940297 -0.9102492537313429 -3.464259701492538
H 2.1252477611940295 -0.1337492537313434 -2.0010597014925384
C 1.3965477611940298 2.0964507462686566 1.997440298507462
H 1.51704776119403 1.8448507462686567 3.057640298507462
H 2.1256477611940294 1.5207507462686571 1.4165402985074618
C 3.94864776119403 -1.4275492537313434 -3.522959701492538
H 4.81734776119403 -2.087049253731343 -3.615159701492538
H 3.4305477611940303 -1.3641492537313429 -4.484459701492538
H 4.26984776119403 -0.441449253731343 -3.176459701492538
C 2.60904776119403 -3.4296492537313434 -2.8992597014925376
H 1.9825477611940296 -3.869549253731343 -2.119359701492538
H 2.06294776119403 -3.373349253731343 -3.845759701492538
H 3.5215477611940305 -4.019849253731343 -3.0234597014925377
C 3.7281477611940304 -2.060049253731343 -1.156659701492538
H 3.9048477611940298 -1.032549253731343 -0.8295597014925382
H 3.12924776119403 -2.623249253731343 -0.4404597014925382
H 4.68244776119403 -2.5769492537313434 -1.3005597014925383
C 3.1110477611940297 3.755250746268656 2.588740298507462
H 3.40124776119403 4.809350746268656 2.534540298507462
H 2.9823477611940303 3.461750746268656 3.634840298507462
H 3.86514776119403 3.1392507462686563 2.091540298507462
C 1.99744776119403 3.9574507462686572 0.40494029850746194
H 2.67914776119403 3.230350746268657 -0.04295970149253803
H 1.03214776119403 3.981150746268657 -0.10175970149253821
H 2.4399477611940297 4.958250746268657 0.368240298507462
C 0.7418477611940297 4.4992507462686575 2.475440298507462
H -0.18475223880597014 4.424250746268656 1.901240298507462
H 0.57844776119403 4.189650746268656 3.511940298507462
H 1.1210477611940297 5.524350746268658 2.4432402985074617
N 3.00114776119403 -2.025349253731343 -2.490159701492538
N 1.7831477611940298 3.586450746268657 1.862540298507462
C -3.55075223880597 -3.8435492537313434 0.6444402985074619
H -2.62515223880597 -2.2736492537313433 1.7424402985074618
H -4.67195223880597 -1.3478492537313436 1.5102402985074619
H -4.83415223880597 -1.6757492537313432 -0.1945597014925382
H -3.7169522388059697 0.17335074626865676 -0.900559701492538
H -3.9132522388059705 -4.043149253731343 -0.34225970149253815
H -4.35435223880597 -3.9354492537313432 1.3449402985074619
H -2.78115223880597 -4.545049253731343 0.8904402985074619
H -5.24235223880597 1.138950746268657 1.5249402985074618
H -5.92805223880597 0.6501507462686567 -0.006059701492538094
H -4.89895223880597 2.059650746268657 0.08004029850746197
C 1.1143015603467812 -4.560006373892019 0.5319267622089816
O 2.079004908733513 -5.21138779958755 0.16202787538950675
O 0.7524243377841948 -4.427016813752361 1.7066565680725458
O 0.35061766647109893 -3.932999491786544 -0.21124055705852168
O -7.418094244957855 -9.564639699712519 5.6710419387373125
H -6.9298348234721345 -9.620273282464124 4.835892252333341
H -8.347301507519024 -9.537444106614156 5.397552986090945
O 5.974293319938662 -2.3711073656585624 5.02135446579577
H 6.3041351846300575 -2.2877274318843743 4.114040028656849
H 6.775449097951038 -2.501597379446514 5.5505838300217185
O -2.9755689990317555 -3.7940906817762334 -4.562253446902202
H -3.7216849975418844 -4.037774362565258 -5.130493305926846
H -2.2783472151996453 -4.419628324067796 -4.810338888890001
O -5.87147586728103 -10.235126911827619 -5.2809272912399505
H -5.43289753654898 -10.155928603427839 -4.420494822850418
H -5.193314666162667 -10.622463970773769 -5.854538075975251
O -1.409890036299933 4.680553814015088 -4.7504348112878505
H -0.9960675888523269 4.773885534953458 -3.879224429832741
H -1.0202706083542763 3.8689697648937904 -5.108889797135694
O -1.761978288383204 2.658040609567826 -7.828843514794014
H -2.113078074892252 3.228136979589989 -7.128353382314723
H -0.821295483267952 2.5734006988391 -7.612247369924505
O 5.795488655942506 4.384998535971736 -0.4111494801308691
H 6.409249749253863 4.078340200236433 0.27312045371198473
H 5.746250586966985 5.34231172269701 -0.269413742275312
O 1.9960556916381178 0.7730773076616755 -7.101081934154031
H 1.490864604020189 0.2877850213005213 -7.770589752397984
H 1.4063413456986418 0.7939517229608453 -6.332470723411504
O -8.093842633436454 -4.000946687035631 2.647009982850365
H -8.513140925651939 -3.638674330028779 3.4419408215991703
H -8.656469058840951 -4.752644485869517 2.407502427719326
O -5.7330365058332955 3.4183633651568313 8.347714805652753
H -5.2748982379778955 3.0059240168599404 9.095358081823207
H -5.292604101148061 3.0459895140848445 7.569049950762667
O 7.472971806981491 6.663207474371777 -4.4457863956238
H 8.112056998631754 7.324551102195476 -4.1405617559723815
H 7.187977488537384 6.994771762246682 -5.310543763768522
O 3.2069802867823887 -8.413258213425054 -6.939235920311121
H 2.912696699739373 -7.52151344772178 -7.1783087128616545
H 2.5940433884685956 -8.996499680725712 -7.411570223328004
O -2.731197929174903 6.842172241230083 -5.695433993676191
H -3.2315323571743932 7.662136848214869 -5.823069648376241
H -1.8992048461185949 6.9999258800511175 -6.166457606125904
O -0.7773017449077138 -9.390445899050018 1.1601203806886775
H -0.6504698234147073 -9.185492798942445 0.22157083626031393
H 0.12040896293876058 -9.549742671791366 1.4883001599438503
O 4.616109909295325 2.0380584072511914 -1.5451036806363567
H 4.328342727298524 1.8612813647631836 -0.6368596148066848
H 4.502593584217761 2.995241574731132 -1.6444836189234768
O 2.162604481616033 -1.9288190546905726 8.003969248254348
H 2.1187451494745093 -2.88342662176078 7.843444767951807
H 1.3714316022701198 -1.5811698176401028 7.565623006949917
O -0.7693124304487999 -7.982188313708397 -2.561370647166309
H -0.4054718558885473 -7.7556361769867035 -1.6923128110296681
H -0.26575774324077317 -7.4290580737377825 -3.1773589253996493
O -3.2915969749214002 -3.0737353569977834 -8.626399314109824
H -2.5116543024055447 -2.905249129092925 -8.076609194614013
H -3.102797615546558 -2.6018079089259865 -9.451384907896824
O -5.066343360311566 3.122871812217289 -5.124539792332257
H -4.133060345666518 3.31389888521229 -5.301906161348528
H -5.169190608403174 2.195451206602974 -5.385835425939019
O -1.3930820916023918 -7.030238202875507 7.3687243070650235
H -1.9473757167288923 -7.220241157747463 6.596956977370348
H -0.9326624370726608 -6.2116011882008815 7.1303776598737185
C -15.870034212541006 -12.938944298444193 6.687730148154644
O -14.732313245988971 -12.808306509996434 7.036073409604308
O -17.007755179093035 -13.069582086891952 6.339386886704979
O 7.772517837141711 -7.635371984786072 16.01178855120717
H 7.898064719570874 -7.059986419454907 16.781292799682028
H 8.07047295897915 -7.09519735343607 15.264529521608516
O 7.881899874882227 -5.757360497201369 -5.171286037751267
H 7.015417009077996 -5.937177764114624 -5.566052488564322
H 8.470151257640806 -5.655149824024293 -5.934486688479046
O -5.122915421853199 0.18765996117292105 -3.652828055469123
H -5.767934141444519 0.5289746445710579 -4.290340796654432
H -5.294863672572253 -0.765767464573629 -3.633543678140244
O -4.31891484618418 9.541189371567244 8.729864722736538
H -4.442355893216242 8.77774189072059 9.313711970564706
H -3.4612062692753955 9.378112695999668 8.309503045983131
O 15.796233678206464 -4.328071137038408 -0.7750999717512235
H 15.576935487530466 -3.7061122274225373 -1.4850596714635902
H 15.33621650606154 -3.970900440369811 -0.0006483986538103892
O 7.765958386558317 -1.772169159087456 -2.9560488764229813
H 8.600075525593489 -2.190772135693891 -2.69530474275165
H 7.115417533788376 -2.487590868427452 -2.8933566043123267
O -2.155405795380977 5.154904006994295 8.065692490577403
H -2.5033879877931664 4.523171763906689 7.418552533761639
H -2.797517946667889 5.124850145230166 8.790779171507864
O -10.114491504295202 11.208725571685752 -8.131204348157116
H -9.851249378827962 10.278138242185028 -8.191852204279146
H -11.066589269737984 11.17162658385833 -7.954865315492634
O -13.593683634145567 -6.260853821903939 -8.879927523662094
H -13.914080400967357 -6.970054301087674 -8.302564597041668
H -14.091980476499861 -5.481348284177507 -8.591772499667082
O -9.568091770753487 0.28896183111634643 2.4006427770998657
H -9.899251114353373 0.18819618457302292 1.4955753041879283
H -9.9144988271956 -0.4880864676247059 2.8644962420764117
O -13.55311495686966 3.2060014382987414 -17.102669807961178
H -12.950062224360238 2.525310530571591 -16.76807356343576
H -14.209586882534694 3.304585947584363 -16.396774879772458
O -1.108162232613327 -10.16490771194637 9.957493283475873
H -0.5665776318348414 -9.637573987682186 9.351215607527571
H -1.43572241449266 -9.518729708137805 10.60101504607692
O -17.72898497441631 -6.742685011920736 13.59387516826057
H -18.536330631234662 -6.249320569261432 13.803044654649032
H -17.70841698599286 -6.758055670432119 12.625214936285941
O -7.9147780628428785 -11.770343006788815 12.057947802250174
H -7.3151543252187805 -11.071677036842393 12.360081204270763
H -7.3708209601872205 -12.302319770568666 11.45788669072171
O 15.136306379894656 -8.120515293030433 3.857527537114543
H 14.631806450893077 -8.202816738016434 3.0343181769329313
H 15.496029646173776 -7.221433580705679 3.822696651959734
O -3.588844898171292 16.58551682506471 -4.787469278475128
H -3.846756062705735 17.31065805458261 -4.19872537374086
H -3.4746116648665826 17.013210325379767 -5.649438525314598
O -9.622645497199215 1.6903886014675966 14.25348442175589
H -9.48437140291816 1.9193637341167782 13.322131631252182
H -9.011542935951898 0.9541605666994579 14.40672894778671
O 11.885977487903373 -10.687201232324103 4.323473194108583
H 12.485951335864222 -10.05516103439689 4.7471758337831345
H 11.697914562008615 -10.28891524979015 3.460361059840465
O 12.507424251556552 -7.849115978968662 -4.88354056229545
H 12.428967213552149 -7.4617949211337296 -3.998783958338629
H 11.71183595124011 -8.395277260984317 -4.971341785103602
O 12.950053084676783 -0.3674179296246771 -9.584350125022638
H 13.809104895987222 -0.3360839044024104 -10.031581073468328
H 12.516673788874098 -1.146406716835299 -9.964245899768411