194

C -5.0710522388059704 1.0783507462686561 0.47044029850746183
C -3.8153522388059704 0.1782507462686569 0.19534029850746193
C -4.11845223880597 -1.3219492537313435 0.5608402985074619
C -2.96945223880597 -2.3874492537313436 0.7034402985074619
C -2.52015223880597 0.7359507462686565 0.7384402985074618
C -2.20305223880597 0.7852507462686571 2.097440298507462
C -1.5755522388059702 1.205650746268656 -0.18965970149253808
C -0.9533522388059701 1.2695507462686564 2.508640298507462
H -2.91125223880597 0.4298507462686567 2.840840298507462
C -0.32655223880597006 1.6562507462686575 0.21554029850746192
H -1.7850522388059702 1.178550746268657 -1.2573597014925382
C 0.004447761194029898 1.6956507462686563 1.569740298507462
H -0.7158522388059702 1.2676507462686573 3.5705402985074617
H 0.3943477611940298 1.9193507462686572 -0.5551597014925382
C -1.76045223880597 -2.1592492537313435 -0.1734597014925381
C -0.5287522388059701 -1.936549253731343 0.464840298507462
C -1.8068522388059702 -2.121249253731343 -1.5681597014925381
C 0.6114477611940299 -1.614449253731343 -0.2582597014925381
H -0.4544522388059702 -1.954049253731343 1.5506402985074619
C -0.6479522388059701 -1.8270492537313432 -2.2998597014925384
H -2.74345223880597 -2.290549253731343 -2.092259701492538
C 0.5698477611940298 -1.5506492537313434 -1.6506597014925382
H 1.5072477611940298 -1.351949253731343 0.2991402985074618
H -0.7173522388059701 -1.7640492537313435 -3.3840597014925375
C 1.7791477611940298 -1.082849253731343 -2.4255597014925376
H 1.4739477611940297 -0.9102492537313429 -3.464259701492538
H 2.1252477611940295 -0.1337492537313434 -2.0010597014925384
C 1.3965477611940298 2.0964507462686566 1.997440298507462
H 1.51704776119403 1.8448507462686567 3.057640298507462
H 2.1256477611940294 1.5207507462686571 1.4165402985074618
C 3.94864776119403 -1.4275492537313434 -3.522959701492538
H 4.81734776119403 -2.087049253731343 -3.615159701492538
H 3.4305477611940303 -1.3641492537313429 -4.484459701492538
H 4.26984776119403 -0.441449253731343 -3.176459701492538
C 2.60904776119403 -3.4296492537313434 -2.8992597014925376
H 1.9825477611940296 -3.869549253731343 -2.119359701492538
H 2.06294776119403 -3.373349253731343 -3.845759701492538
H 3.5215477611940305 -4.019849253731343 -3.0234597014925377
C 3.7281477611940304 -2.060049253731343 -1.156659701492538
H 3.9048477611940298 -1.032549253731343 -0.8295597014925382
H 3.12924776119403 -2.623249253731343 -0.4404597014925382
H 4.68244776119403 -2.5769492537313434 -1.3005597014925383
C 3.1110477611940297 3.755250746268656 2.588740298507462
H 3.40124776119403 4.809350746268656 2.534540298507462
H 2.9823477611940303 3.461750746268656 3.634840298507462
H 3.86514776119403 3.1392507462686563 2.091540298507462
C 1.99744776119403 3.9574507462686572 0.40494029850746194
H 2.67914776119403 3.230350746268657 -0.04295970149253803
H 1.03214776119403 3.981150746268657 -0.10175970149253821
H 2.4399477611940297 4.958250746268657 0.368240298507462
C 0.7418477611940297 4.4992507462686575 2.475440298507462
H -0.18475223880597014 4.424250746268656 1.901240298507462
H 0.57844776119403 4.189650746268656 3.511940298507462
H 1.1210477611940297 5.524350746268658 2.4432402985074617
N 3.00114776119403 -2.025349253731343 -2.490159701492538
N 1.7831477611940298 3.586450746268657 1.862540298507462
C -3.55075223880597 -3.8435492537313434 0.6444402985074619
H -2.62515223880597 -2.2736492537313433 1.7424402985074618
H -4.67195223880597 -1.3478492537313436 1.5102402985074619
H -4.83415223880597 -1.6757492537313432 -0.1945597014925382
H -3.7169522388059697 0.17335074626865676 -0.900559701492538
H -3.9132522388059705 -4.043149253731343 -0.34225970149253815
H -4.35435223880597 -3.9354492537313432 1.3449402985074619
H -2.78115223880597 -4.545049253731343 0.8904402985074619
H -5.24235223880597 1.138950746268657 1.5249402985074618
H -5.92805223880597 0.6501507462686567 -0.006059701492538094
H -4.89895223880597 2.059650746268657 0.08004029850746197
C -0.33111839236695595 2.8765902546963638 -3.236469727110618
O -0.6603278831008282 3.429847253023536 -2.1985375021494926
O -0.5369767799857265 3.3151339079684745 -4.373981596289025
O 0.25884756811370735 1.7925286664575948 -3.3099477699490403
O 2.6803864104332575 8.437230329246251 -0.16999376063946414
H 2.935563499128633 9.088236371521734 -0.8408463101805435
H 2.3466324270090153 7.68798625583443 -0.6859429260673298
O -8.86504725682965 4.753560845626514 2.484473365607842
H -8.028141552964671 4.901022098607792 2.0188432778692387
H -8.802631594999388 5.324844831369799 3.264666186064141
O 9.053819125082535 8.14985482277179 1.0231864124769947
H 9.54138663421234 8.096615931532433 0.18747659358017071
H 8.493608286860324 7.35922219198424 1.0181066317412082
O -0.483712338658548 -10.719240144627157 -2.1079036770895145
H -0.21953867417379103 -11.395750855070604 -1.4664109721052734
H 0.16652754193087205 -10.80629846136377 -2.8210452419124086
O 4.335907181710514 -4.237045528194822 0.6552294154771711
H 5.028966813688099 -4.89049249583877 0.4773452849313967
H 4.679714883910103 -3.7296176212759615 1.4057459892369923
O -1.7458924764301345 -2.360658288214077 9.656000382681327
H -2.1335447310707565 -1.9859213332636783 8.850851141256767
H -1.942290253074027 -3.307361170643432 9.591630280698453
O -7.5379847467627235 3.4463081150143484 -2.321697184662521
H -8.382557430935996 3.010854502589399 -2.511551048132338
H -7.044647858629976 2.7873956507335764 -1.8104095713537922
O 2.6262599464888545 6.777096146103113 3.3534814750127704
H 3.0288523698976135 7.066043096039068 4.1861857188091935
H 2.9974404430485277 7.380438311857208 2.692296769883508
O -7.6265868181300345 1.2804731990780835 -5.798778610645439
H -8.355309304749404 1.6946948007661269 -5.312618802464757
H -7.08750381055221 0.8689931363816181 -5.106654623744132
O 5.419332454260786 2.9366351883089035 4.6258636315423445
H 5.649278558250307 2.9531032416221588 3.6846830168991653
H 5.932296327392277 2.194342276842617 4.979178282737059
O 2.365519137202468 6.459070562485834 9.584756204359206
H 1.4334727149368132 6.2324202597561635 9.447328172595874
H 2.434505977815695 7.370728151500149 9.263690478198953
O -7.5886484272217505 -7.775920561046326 2.310284100776264
H -8.262114279023367 -8.2024895147491 1.7594211131885649
H -7.077003192642903 -7.24265129551426 1.6835425362764727
O 3.772396204324295 7.27366601105675 -5.218177950253187
H 3.982731284737956 7.440418993640604 -6.149263313496949
H 4.263710808653963 7.959035911708604 -4.740852062464929
O -2.499817172806971 -0.1446323751888725 5.141189265325456
H -3.1191961557266903 -0.6609122963003424 4.60379548468181
H -2.9255104012412474 0.7221772792169328 5.221115747758316
O -4.519076127682178 -7.072995934202274 -9.083573321310045
H -3.9036254168399287 -7.255103845960829 -9.809537843789423
H -4.1267440460985165 -6.3122390956542676 -8.629385568654087
O -4.8440312008437925 -10.99646547166355 -1.0763241483901016
H -4.37966791341799 -11.809560361609277 -0.8269032307924693
H -5.056386699537875 -10.578642927491483 -0.22821365555560824
O -1.4836402570656801 -6.142257128445379 7.644456407902426
H -0.7099577107255488 -5.883536573454683 8.16737738550225
H -1.41706323714563 -5.600178999367365 6.844031054297329
O -0.6674615158898582 -2.3371540442377348 6.01221070668854
H -1.0279991998582259 -2.344962341730413 6.911609931632054
H 0.290532942439127 -2.2764610755538435 6.144592448871096
O 4.7188415210755705 3.6306233190060437 9.705595662525848
H 3.822223286210545 3.497420770397458 9.363104525630735
H 4.995530177931618 2.7458131729699025 9.98758207521039
O 2.1899314340726708 3.252443997331344 -5.212859085146541
H 2.4510601278964588 2.9953147444909742 -4.31582858984795
H 2.437826841794843 4.187464249409842 -5.26984100625596
C 6.096948665639719 -6.454577298072813 -12.576392522172526
O 6.974001548346367 -6.365914818255209 -11.76661757633353
O 5.21989578293307 -6.5432397778904186 -13.386167468011523
O 10.97419283395121 4.659401266828361 12.08908445504635
H 10.917151396516932 3.8988761666615597 11.49132597260406
H 11.348596012055157 4.289911641831796 12.902879036956037
O -17.24847549676758 -7.280951018830672 -13.887446013652333
H -16.863788170252864 -6.392602852510886 -13.8447780735188
H -16.767318940280465 -7.777234864653948 -13.2083637971098
O -13.594567681906398 8.689780936981965 -4.879472815715724
H -14.049589602884648 9.151579618625348 -5.599656393674636
H -13.842373897273799 9.189843862367082 -4.0873294608988315
O -6.965915669311471 4.757566053206933 12.51628654809638
H -7.5785740215166175 5.095277573262372 11.84578820388133
H -7.082360762240794 5.361447555733375 13.26510536165483
O -4.330985901510242 10.945142284089847 -16.066363817572174
H -4.099875061363315 10.765589541188803 -16.990114838672174
H -5.285248034256492 11.111551736379203 -16.091929820297107
O 5.324899950115836 -3.981496330394119 5.647538606238914
H 5.395201211177741 -4.613359463843433 4.916256123076135
H 5.962543664076169 -3.2882495028847982 5.419983613994984
O -2.3070465172235375 -12.202023626003857 16.639199318109874
H -3.1168940509583196 -11.90186552465316 17.07853909914187
H -2.1470602666383782 -13.079672729622253 17.01748280286903
O -4.480498167283855 3.2091832591323084 -10.810587887140183
H -4.783847928420024 3.6919199666256035 -10.02706280741576
H -3.9930256733976126 2.454949205431957 -10.446632526906185
O -8.389589621451073 -14.963618751274577 -13.096704343719026
H -8.009367894256457 -14.978401494348944 -13.987872265929166
H -9.237960431657118 -14.509739740169941 -13.211694586648665
O -5.16942414504387 -19.385092698121134 -2.3351901943665796
H -4.554786693493072 -20.121690365622598 -2.19876425738042
H -4.617702301186998 -18.688326596501316 -2.72130151373535
O -6.65832572528282 -4.811589216685044 4.13322705593281
H -6.174905518930082 -4.770465861197839 3.294429624711571
H -7.579209204033076 -4.646323182214949 3.8809916485940406
O -17.235874135965343 -2.6593907469758475 7.750469347553819
H -16.55142044311999 -3.130280511903983 7.251717577094522
H -18.05287351551883 -2.8528827587095353 7.26669791443228
O 3.98855318002291 -12.063581799674642 5.533285567906191
H 4.30734133961265 -12.006495456257811 4.620004332141061
H 4.304887429462423 -11.244537999988239 5.943239030053783
O 6.2459584589444725 -16.313979889302455 -3.5718167063675326
H 6.611396044086555 -17.00453796888993 -2.9986219166302384
H 7.028516990924903 -15.867982609291204 -3.9290988281525445
O -13.67370538703393 -6.148333604532844 15.978879800931475
H -13.703476712985305 -6.158168468323063 16.947375696898686
H -14.373204208654666 -6.76562184141763 15.716928325549356
O 17.82524817345354 9.078662749112148 -9.659313039375647
H 16.997472229888018 8.650542946233188 -9.924770716863202
H 18.288416803039865 8.396921157938138 -9.149739523844616
O -5.367470251469063 -15.812464342863564 -4.066195517750487
H -5.107311176113454 -15.392776937773682 -4.899950334479627
H -6.285202554679814 -16.084274300538848 -4.21735341814623
O -12.573479724648765 1.1286799620518746 10.513653375829298
H -12.62535064035345 1.1567569051823678 11.480859894763286
H -13.194261090804194 1.8148425261154895 10.225949751570157
O -5.308594073371161 6.897298041399585 13.784789207997285
H -5.3450944105730525 7.000590867323963 12.821998641780153
H -5.7468421188596075 7.692891399090897 14.122327063834259
O -3.7883039880159446 6.169299517451017 2.8701628017133305
H -3.441290988222552 7.073743456251414 2.893195310078977
H -3.075197323685252 5.6553166535751656 2.462409879922289