194

C -5.0710522388059704 1.0783507462686561 0.47044029850746183
C -3.8153522388059704 0.1782507462686569 0.19534029850746193
C -4.11845223880597 -1.3219492537313435 0.5608402985074619
C -2.96945223880597 -2.3874492537313436 0.7034402985074619
C -2.52015223880597 0.7359507462686565 0.7384402985074618
C -2.20305223880597 0.7852507462686571 2.097440298507462
C -1.5755522388059702 1.205650746268656 -0.18965970149253808
C -0.9533522388059701 1.2695507462686564 2.508640298507462
H -2.91125223880597 0.4298507462686567 2.840840298507462
C -0.32655223880597006 1.6562507462686575 0.21554029850746192
H -1.7850522388059702 1.178550746268657 -1.2573597014925382
C 0.004447761194029898 1.6956507462686563 1.569740298507462
H -0.7158522388059702 1.2676507462686573 3.5705402985074617
H 0.3943477611940298 1.9193507462686572 -0.5551597014925382
C -1.76045223880597 -2.1592492537313435 -0.1734597014925381
C -0.5287522388059701 -1.936549253731343 0.464840298507462
C -1.8068522388059702 -2.121249253731343 -1.5681597014925381
C 0.6114477611940299 -1.614449253731343 -0.2582597014925381
H -0.4544522388059702 -1.954049253731343 1.5506402985074619
C -0.6479522388059701 -1.8270492537313432 -2.2998597014925384
H -2.74345223880597 -2.290549253731343 -2.092259701492538
C 0.5698477611940298 -1.5506492537313434 -1.6506597014925382
H 1.5072477611940298 -1.351949253731343 0.2991402985074618
H -0.7173522388059701 -1.7640492537313435 -3.3840597014925375
C 1.7791477611940298 -1.082849253731343 -2.4255597014925376
H 1.4739477611940297 -0.9102492537313429 -3.464259701492538
H 2.1252477611940295 -0.1337492537313434 -2.0010597014925384
C 1.3965477611940298 2.0964507462686566 1.997440298507462
H 1.51704776119403 1.8448507462686567 3.057640298507462
H 2.1256477611940294 1.5207507462686571 1.4165402985074618
C 3.94864776119403 -1.4275492537313434 -3.522959701492538
H 4.81734776119403 -2.087049253731343 -3.615159701492538
H 3.4305477611940303 -1.3641492537313429 -4.484459701492538
H 4.26984776119403 -0.441449253731343 -3.176459701492538
C 2.60904776119403 -3.4296492537313434 -2.8992597014925376
H 1.9825477611940296 -3.869549253731343 -2.119359701492538
H 2.06294776119403 -3.373349253731343 -3.845759701492538
H 3.5215477611940305 -4.019849253731343 -3.0234597014925377
C 3.7281477611940304 -2.060049253731343 -1.156659701492538
H 3.9048477611940298 -1.032549253731343 -0.8295597014925382
H 3.12924776119403 -2.623249253731343 -0.4404597014925382
H 4.68244776119403 -2.5769492537313434 -1.3005597014925383
C 3.1110477611940297 3.755250746268656 2.588740298507462
H 3.40124776119403 4.809350746268656 2.534540298507462
H 2.9823477611940303 3.461750746268656 3.634840298507462
H 3.86514776119403 3.1392507462686563 2.091540298507462
C 1.99744776119403 3.9574507462686572 0.40494029850746194
H 2.67914776119403 3.230350746268657 -0.04295970149253803
H 1.03214776119403 3.981150746268657 -0.10175970149253821
H 2.4399477611940297 4.958250746268657 0.368240298507462
C 0.7418477611940297 4.4992507462686575 2.475440298507462
H -0.18475223880597014 4.424250746268656 1.901240298507462
H 0.57844776119403 4.189650746268656 3.511940298507462
H 1.1210477611940297 5.524350746268658 2.4432402985074617
N 3.00114776119403 -2.025349253731343 -2.490159701492538
N 1.7831477611940298 3.586450746268657 1.862540298507462
C -3.55075223880597 -3.8435492537313434 0.6444402985074619
H -2.62515223880597 -2.2736492537313433 1.7424402985074618
H -4.67195223880597 -1.3478492537313436 1.5102402985074619
H -4.83415223880597 -1.6757492537313432 -0.1945597014925382
H -3.7169522388059697 0.17335074626865676 -0.900559701492538
H -3.9132522388059705 -4.043149253731343 -0.34225970149253815
H -4.35435223880597 -3.9354492537313432 1.3449402985074619
H -2.78115223880597 -4.545049253731343 0.8904402985074619
H -5.24235223880597 1.138950746268657 1.5249402985074618
H -5.92805223880597 0.6501507462686567 -0.006059701492538094
H -4.89895223880597 2.059650746268657 0.08004029850746197
C -2.8130346476890904 4.219078998855943 1.196764659402462
O -2.5743512197625407 4.468525110524711 2.3683372594604206
O -1.990649101790444 3.795076914145272 0.37668191348105906
O -3.9139152712700405 4.352046155532926 0.6499283289805899
O -5.512922586535304 6.534729849446764 5.258532922745289
H -4.843918276938734 6.909643158114648 5.850850913038441
H -6.077270772326627 6.0094495927572344 5.8455199084836655
O 7.455427624923594 0.5817748713875424 8.864134197908216
H 7.487097382187457 0.12482754237868177 8.010223475474941
H 8.369989672171132 0.546706925376869 9.182424073959883
O 2.773329062767388 -6.958611232082062 6.086589119832406
H 1.9488142666940038 -6.458621979553799 5.9909154279819585
H 3.1921409283505215 -6.888242323582581 5.2156087628418675
O -5.581869064946279 6.406783534173407 1.2698690108372275
H -5.596899740141485 7.145288021120537 1.8970472617851786
H -6.087065598230305 5.710547979449988 1.7159569611304102
O -3.3390806116491762 0.10357969970423153 -8.025971803964232
H -3.4281240057275033 0.42152847218988687 -8.936986188563003
H -4.24432467206898 0.1252543774771444 -7.680971305822407
O 1.252290164847498 8.391747230272482 1.9266532077373975
H 1.6061239245980181 7.635864932555916 2.419005702764628
H 2.0365046209348137 8.801707996761861 1.5318091865048158
O -3.9008005801105483 -5.320562426684396 -4.0001268873134395
H -4.063679068777948 -5.4449696016025735 -3.053046737770486
H -3.1391375867052704 -4.7222835326683485 -4.030023270904854
O -6.912936771107882 -4.519259218311413 0.3260973264987549
H -6.476967545129175 -4.103880774084378 -0.43308574692362856
H -7.361705367899752 -3.783782250937612 0.7695410335192627
O 7.298686388596435 -10.25418091695595 -1.1625125977373356
H 8.211039791908329 -10.376058020660873 -0.8596519103615936
H 7.394659485527553 -9.9410944632538 -2.074503815608243
O -4.394988351840963 10.677457701873184 8.02126460698077
H -4.446369748263365 10.622379470544786 7.0551933376453135
H -5.107392227242192 10.096141379547822 8.327065189078684
O -7.729348052878659 -2.8604234689686305 -3.09776280654477
H -7.1607876947067695 -3.5245978169511605 -2.679936393428706
H -8.215345144919993 -3.358961339726987 -3.7717277627903387
O 3.6090512712012517 7.687135309233333 -2.639147174629817
H 4.169308401131806 7.798479700674415 -3.421887062304256
H 3.2785329424023764 8.580023509658059 -2.458952168677116
O -2.5606630521588603 5.531653570294237 -5.501765019355509
H -3.2097358800516305 5.053118997940487 -6.03905124107862
H -2.0033489934257713 5.982063572971551 -6.15406388776375
O -12.044541139410239 -0.37895650752299703 2.436717503070755
H -12.725012059589346 -0.832245035734982 1.9166634732988355
H -11.292196950695713 -0.31164715360600637 1.8297499447261938
O -9.373909048183167 -4.152055767557127 -0.26324932946378254
H -10.164680800540081 -4.144221828813031 -0.8232368489480382
H -8.831264115652395 -4.863877382735186 -0.634474880394712
O 2.245634550740222 -0.430526351131405 6.047803238268782
H 1.7715717934084805 -0.52012255714106 5.2074435659381155
H 2.7421897285192154 0.3957469562834269 5.949480701815401
O -2.12635422398555 0.4310711877945068 5.860386235437332
H -2.8278182727449366 0.707346259407148 5.251627145153236
H -2.180497393440506 1.0711816745961116 6.585844039991107
O 6.996292508244059 -4.119309120515705 -1.7944957486813053
H 6.7962736994873145 -4.968118102090217 -2.2169684055976733
H 7.4952220373237655 -3.634093944282621 -2.468734209513524
O 5.631495058999871 7.1675656198847335 1.2636710945037066
H 5.8374234066156045 7.021832950944665 0.328084186861312
H 6.422188879716267 6.855375010003294 1.7287541508310245
O 4.828422480957946 7.181667335618087 4.021683160387027
H 4.807633825357941 7.264026440727362 4.986956265007653
H 3.8966223915829197 7.081989328811173 3.775157638990777
C 5.811346028136473 -17.384359909968126 0.11085062902563703
O 5.129306085715709 -17.40685966771069 -0.8725788474210514
O 6.493385970557237 -17.361860152225567 1.0942801054723255
O 3.0796645156550557 -8.037092750023069 22.615858847613683
H 3.097435465247619 -8.939788650734986 22.96769923911029
H 3.9985546450710414 -7.867856094926591 22.359028497122107
O -3.8528996619684346 -11.289123624024391 -0.5726052854649089
H -4.502541736579583 -10.594581789431876 -0.7584659101162554
H -3.2700829867606056 -11.277672065506117 -1.3466566592168001
O 1.6419078553813575 16.752231368267033 -5.668695405040877
H 1.5212471767788607 17.19888309034033 -6.5201122222979375
H 0.7638044991663584 16.39720506705946 -5.464115920353807
O 14.609898700877723 1.4272209843852213 15.707271936753784
H 14.19605722122569 2.0238804959616252 15.06563339842802
H 14.569773554344913 1.9172281103504378 16.54228387284753
O -14.570358713496331 -2.181083686404846 6.145621129138863
H -14.21664222722314 -3.0557960160316746 5.924871622599535
H -14.903331604402263 -2.2846056011838054 7.0497086311995005
O 14.317168519277189 -5.680756281703162 -1.2741239376474003
H 14.988409597560914 -5.9168936007666595 -1.9318791643617215
H 14.832758855930718 -5.371994067088468 -0.5139960248092197
O 4.318769548543333 12.219288572087535 5.017940599681991
H 3.5553852144018543 12.762975594991174 5.264144044851939
H 4.480276787770553 11.673711196463888 5.802301921513205
O 19.207009892462505 3.0702394410359126 -8.445905847343985
H 18.461051719322377 2.4752494443486492 -8.614727246069195
H 19.056134710251303 3.8121764076940563 -9.050660476262895
O 5.038951129035886 -10.022617605368078 8.213217761981694
H 5.40180787994922 -10.040813581748331 9.111533542573458
H 5.771107144962647 -9.691438971390431 7.67171039819155
O -6.45698697175151 2.284031420196948 -6.019802698995109
H -6.9886367402486425 3.089360554515783 -6.107898476273149
H -7.1099116658271395 1.5685106519657976 -6.0459047754671165
O 5.45330275222504 1.5757128367092914 15.458447409063504
H 5.360678588108661 1.7922588675463533 14.518502763006907
H 4.931354473455354 2.2571045152400266 15.908155446592774
O -10.157728267896811 -20.033291126155955 7.601760404026752
H -10.205610449877696 -19.942196668148537 6.638237465395249
H -11.063627957652265 -19.85952189029184 7.898596973654165
O -2.3458708743235617 6.946823244371861 -11.701613341861583
H -3.0016158661472705 6.837662960622367 -10.996595686018939
H -2.866931413477286 7.246880902636452 -12.46149705701384
O -3.5232215254939234 -2.406809201806725 10.60146299801931
H -2.8188179231093056 -1.9877585399344824 10.084568942499216
H -3.2543186264172568 -3.3363161915843205 10.65313437426143
O -11.555154038337358 -10.32570975368644 -16.162262570039456
H -11.47135925134872 -10.43435485722589 -15.203022228909854
H -10.656443821816683 -10.109040300102672 -16.45266959286272
O 7.914083671455429 12.006814629205046 6.233567217178945
H 7.967387562231286 12.045767433325171 7.200318856008348
H 7.505962199668987 12.850518285675037 5.98747181164273
O -15.075417263600915 10.44171798872544 13.569117064946742
H -15.596590899072421 11.212872983723592 13.299551910895246
H -15.561348689603703 10.084284545663362 14.327453354005687
O -6.438706468527931 -6.943351878779165 -9.065545130671119
H -6.655292048486778 -6.874290324213154 -8.12358518187562
H -7.2981618574361224 -6.879987026453252 -9.508583813255818
O 1.1547791944431052 3.8244296314117205 -9.627084423114429
H 1.156948719609536 3.93743800067129 -8.664695853700884
H 2.0472162023602913 4.089500016159746 -9.895888854494109
O -1.4265083661531817 8.280917865989121 19.534429383220157
H -0.8190750783745679 8.175128724019482 18.786899574289574
H -2.2581058985478775 7.898651188030243 19.2161847048085