194

C -5.0710522388059704 1.0783507462686561 0.47044029850746183
C -3.8153522388059704 0.1782507462686569 0.19534029850746193
C -4.11845223880597 -1.3219492537313435 0.5608402985074619
C -2.96945223880597 -2.3874492537313436 0.7034402985074619
C -2.52015223880597 0.7359507462686565 0.7384402985074618
C -2.20305223880597 0.7852507462686571 2.097440298507462
C -1.5755522388059702 1.205650746268656 -0.18965970149253808
C -0.9533522388059701 1.2695507462686564 2.508640298507462
H -2.91125223880597 0.4298507462686567 2.840840298507462
C -0.32655223880597006 1.6562507462686575 0.21554029850746192
H -1.7850522388059702 1.178550746268657 -1.2573597014925382
C 0.004447761194029898 1.6956507462686563 1.569740298507462
H -0.7158522388059702 1.2676507462686573 3.5705402985074617
H 0.3943477611940298 1.9193507462686572 -0.5551597014925382
C -1.76045223880597 -2.1592492537313435 -0.1734597014925381
C -0.5287522388059701 -1.936549253731343 0.464840298507462
C -1.8068522388059702 -2.121249253731343 -1.5681597014925381
C 0.6114477611940299 -1.614449253731343 -0.2582597014925381
H -0.4544522388059702 -1.954049253731343 1.5506402985074619
C -0.6479522388059701 -1.8270492537313432 -2.2998597014925384
H -2.74345223880597 -2.290549253731343 -2.092259701492538
C 0.5698477611940298 -1.5506492537313434 -1.6506597014925382
H 1.5072477611940298 -1.351949253731343 0.2991402985074618
H -0.7173522388059701 -1.7640492537313435 -3.3840597014925375
C 1.7791477611940298 -1.082849253731343 -2.4255597014925376
H 1.4739477611940297 -0.9102492537313429 -3.464259701492538
H 2.1252477611940295 -0.1337492537313434 -2.0010597014925384
C 1.3965477611940298 2.0964507462686566 1.997440298507462
H 1.51704776119403 1.8448507462686567 3.057640298507462
H 2.1256477611940294 1.5207507462686571 1.4165402985074618
C 3.94864776119403 -1.4275492537313434 -3.522959701492538
H 4.81734776119403 -2.087049253731343 -3.615159701492538
H 3.4305477611940303 -1.3641492537313429 -4.484459701492538
H 4.26984776119403 -0.441449253731343 -3.176459701492538
C 2.60904776119403 -3.4296492537313434 -2.8992597014925376
H 1.9825477611940296 -3.869549253731343 -2.119359701492538
H 2.06294776119403 -3.373349253731343 -3.845759701492538
H 3.5215477611940305 -4.019849253731343 -3.0234597014925377
C 3.7281477611940304 -2.060049253731343 -1.156659701492538
H 3.9048477611940298 -1.032549253731343 -0.8295597014925382
H 3.12924776119403 -2.623249253731343 -0.4404597014925382
H 4.68244776119403 -2.5769492537313434 -1.3005597014925383
C 3.1110477611940297 3.755250746268656 2.588740298507462
H 3.40124776119403 4.809350746268656 2.534540298507462
H 2.9823477611940303 3.461750746268656 3.634840298507462
H 3.86514776119403 3.1392507462686563 2.091540298507462
C 1.99744776119403 3.9574507462686572 0.40494029850746194
H 2.67914776119403 3.230350746268657 -0.04295970149253803
H 1.03214776119403 3.981150746268657 -0.10175970149253821
H 2.4399477611940297 4.958250746268657 0.368240298507462
C 0.7418477611940297 4.4992507462686575 2.475440298507462
H -0.18475223880597014 4.424250746268656 1.901240298507462
H 0.57844776119403 4.189650746268656 3.511940298507462
H 1.1210477611940297 5.524350746268658 2.4432402985074617
N 3.00114776119403 -2.025349253731343 -2.490159701492538
N 1.7831477611940298 3.586450746268657 1.862540298507462
C -3.55075223880597 -3.8435492537313434 0.6444402985074619
H -2.62515223880597 -2.2736492537313433 1.7424402985074618
H -4.67195223880597 -1.3478492537313436 1.5102402985074619
H -4.83415223880597 -1.6757492537313432 -0.1945597014925382
H -3.7169522388059697 0.17335074626865676 -0.900559701492538
H -3.9132522388059705 -4.043149253731343 -0.34225970149253815
H -4.35435223880597 -3.9354492537313432 1.3449402985074619
H -2.78115223880597 -4.545049253731343 0.8904402985074619
H -5.24235223880597 1.138950746268657 1.5249402985074618
H -5.92805223880597 0.6501507462686567 -0.006059701492538094
H -4.89895223880597 2.059650746268657 0.08004029850746197
C 1.5137713456957536 -4.099676696159242 1.579947618625555
O 1.1626945934918789 -3.418866198693447 0.6286234471664489
O 2.4094330770348913 -3.8007662980056685 2.378116836893368
O 1.027715320535247 -5.1929259245973505 1.8917232580277532
O -4.62175028985083 8.276366146529883 6.490547933994658
H -4.154069781897354 9.056567505779487 6.8245062224162085
H -4.776439064797378 8.478592623140123 5.555594577209764
O -0.6298956583856281 9.301227124627664 7.9006474577899
H -1.2867995524270466 10.010719443170396 7.964407012541168
H 0.020799225774197794 9.64087298677197 7.268034779797688
O -4.33210783613123 5.73452136808828 -6.37452099050434
H -4.4677710048175845 4.875693714740082 -6.802280179074742
H -3.6130127489202213 5.571824832507396 -5.745717335013242
O -2.8776654351993667 4.4088365364248565 -2.3229263558685087
H -3.019932244651656 3.453144788565621 -2.249572454117984
H -3.7313286728016832 4.792501884506379 -2.071884682539528
O 5.292355697697331 8.945187872620487 4.553232175340035
H 4.399955908340477 8.706652562736274 4.260502131111082
H 5.529408586244109 8.243024807724085 5.177519691334806
O 8.732034729326621 4.533650749405673 3.77037290616701
H 9.476311085373634 4.934743853933819 3.2969340144086816
H 8.949760584638515 3.5896747996580656 3.791978519484058
O -5.1191826691757925 3.1173842972635946 -3.4065919566964586
H -5.129249851394972 2.750586620441493 -2.509750012416378
H -5.2336022523187875 2.3428587291190617 -3.977538755955173
O 4.354833910333867 6.490772042471206 -4.198337534793767
H 4.871589137098772 7.308888337735081 -4.147179740325444
H 4.522770436746164 6.054398801593763 -3.3496104514255682
O 6.736905818075808 7.687113868696903 1.693945645932938
H 5.789134945721448 7.81714315265339 1.5397051981560343
H 7.065399934349847 8.576197106695295 1.8954017349042873
O 3.5436273312636395 -5.744897388503174 2.803997886827875
H 3.728228413205212 -5.096407666371657 3.499951102019664
H 2.8424176842976294 -6.298195339566218 3.1796684242023683
O 7.162608993654285 -3.6634916754273226 -0.7400851064181078
H 6.52675184298856 -4.389257506409387 -0.8290626284457567
H 7.974106314540516 -4.098909905398621 -0.4386800508813258
O 8.595917411822322 -9.349442861449019 -3.667933139104492
H 9.500472322983553 -9.18978524183482 -3.976570813559876
H 8.649102936813758 -9.21823428135427 -2.7093312651542543
O -2.441219242142521 -6.233257019561641 6.470045364847896
H -3.153368623190646 -5.641693541455647 6.183927788764367
H -2.876308702965198 -7.093670728259337 6.56672708631637
O 5.57797933025368 -6.196593130536311 0.8885034135166128
H 6.3711316044834785 -6.340151959791733 1.4263395310532778
H 5.090912152176396 -7.031022199629436 0.9623656974794976
O -5.96061057836523 -7.19338602482617 4.623108317379897
H -6.489548561283205 -7.126979675109119 5.432294429373868
H -6.396568624294109 -6.584759118114036 4.00790443660874
O -3.65664998351744 -5.068654634768039 -3.9902618011183373
H -3.65819816525089 -4.700551330730636 -4.886623847163388
H -4.465382912322628 -4.714887547911123 -3.590559608951529
O -12.414561175491592 -0.6643256948390746 1.522528710555095
H -12.944115757997892 -1.3852986327412702 1.8950033054729944
H -12.51181703416058 -0.773210137541224 0.5645895577943367
O -6.3498981999549144 -4.140661267854293 8.276039427069675
H -6.28234050881595 -3.224729489435182 8.585025337023476
H -7.074122676515912 -4.512220487699862 8.801781377077186
O -5.233976699884276 -1.1308865926137943 -5.046921329189309
H -4.465060978269052 -1.1346830537632602 -4.457242130950402
H -4.880959855742978 -0.8085180564629351 -5.889785244037057
O -5.593912920360583 5.16777407024365 8.997306683020096
H -5.281810788583613 5.302590643697864 9.904711833855343
H -4.809403841678154 4.851603745277113 8.524502521262397
C -8.094461298074926 -5.5491086628326265 -4.322856618261017
O -8.50100182131872 -6.536434106393839 -4.863903315651653
O -7.687920774831132 -4.561783219271414 -3.7818099208703804
O 1.8560882874188789 1.6608133835501333 8.577571528370079
H 2.1975305859067973 1.9821465642901188 7.729556492737564
H 2.267777268575863 0.7896997649576079 8.68069858881766
O 0.27697414853841695 2.4417588800582593 -11.252617045648053
H 0.24533919355355505 2.4054552419525015 -10.284810953301353
H 0.4004495051193429 1.517903609817345 -11.517583496855185
O -8.175357731411944 0.9776721550689275 -7.404739559045291
H -7.303030842016094 1.2587881956341886 -7.0901176801591115
H -8.634415806391411 0.6944392339184985 -6.599750900446464
O -6.508057883642122 -13.431990397008597 10.102379325740227
H -7.309979445618358 -13.134864554499227 10.558016680498035
H -6.0481265524909436 -12.6092582065605 9.877575282791746
O -9.686151009948192 12.892465370213404 -11.123173113234014
H -9.778868612134275 13.21240075119987 -10.213221380921851
H -8.863092152843597 13.300168382108893 -11.431903280423782
O 2.1055280742930744 -15.791199430479548 -12.324300800660613
H 1.596496347968265 -15.342759300098855 -13.016222406016979
H 2.9126616036683872 -15.260689503979403 -12.246476460361698
O 6.945294746368986 -5.530953360679135 10.06288497191682
H 7.726865277712518 -5.690432168986774 9.51272011377322
H 7.111845069206404 -4.662952573626433 10.460122392030588
O -3.6158786007270374 -14.748117322041077 16.39373403316322
H -4.3736954571043425 -14.951617991843701 16.96230104458782
H -2.884734113945794 -15.243986020348233 16.791859538234874
O -4.238306389811631 13.155884010415486 -14.56620333742532
H -3.926670889545246 13.197924960034888 -13.64964279363739
H -5.104735824409103 12.727166084465336 -14.49939825429458
O -9.396240540889456 2.4489288121507595 -10.562834035147686
H -10.073933319524771 1.9413486337183967 -10.091599255925994
H -8.808827838170664 2.7643000496376535 -9.859663185673258
O -10.124366735514018 -8.19215159284006 8.798051411234372
H -10.050007104644544 -8.213996257987459 7.832152445088555
H -10.611762527664265 -7.373956263609369 8.976835329189296
O -3.383505907174313 -5.978277489445741 13.947677376010697
H -3.5803540214042564 -5.629373307855703 13.065359945097592
H -3.5178869046559083 -6.933614663120772 13.85693280917359
O 14.997347065768885 1.360242156427708 4.824897969359361
H 15.346410878345447 0.6403232194413347 5.371559231767744
H 14.045306449851068 1.1840163542342688 4.785845740433159
O -16.533272299007894 12.158537349555013 -0.11009733411111178
H -17.369962438005377 12.147326826940082 0.37856542525067605
H -15.999263890597662 11.476660413068851 0.32446084097643224
O 2.3539152887710877 -7.217935301678434 8.312800828283955
H 2.4521768179164676 -7.537172333801363 7.403185664540871
H 1.4672647656797717 -7.512535033199422 8.56975178156037
O 5.8660635513934976 4.627366722638001 -18.84583385725378
H 6.723530942294138 4.827488999582149 -19.250393005849805
H 5.403523327775806 5.478845648390443 -18.844376175820738
O 9.112515258585201 -17.447022822896887 4.899330406223367
H 9.337100559915188 -16.507337277051548 4.825034549973742
H 8.908886077658487 -17.565400015183293 5.8392686708564785
O -7.757560009724839 4.941934022627098 -10.5389845634275
H -7.991392144868218 4.6767140065561135 -11.44117535951755
H -7.118823976463849 4.270541259538032 -10.255770895350476
O -17.464048811522485 -7.023655928837246 -0.9467706438453427
H -17.20584611621362 -6.896116606971024 -0.021550428754284034
H -17.619783960117484 -6.124394474784396 -1.2724044029165538
O 1.618324525680645 13.572560526046624 -2.5235486877990994
H 2.4123782675211247 14.127062706768488 -2.5547471419889183
H 0.9528954604569542 14.139929001492803 -2.106105138890505