194

C -5.0710522388059704 1.0783507462686561 0.47044029850746183
C -3.8153522388059704 0.1782507462686569 0.19534029850746193
C -4.11845223880597 -1.3219492537313435 0.5608402985074619
C -2.96945223880597 -2.3874492537313436 0.7034402985074619
C -2.52015223880597 0.7359507462686565 0.7384402985074618
C -2.20305223880597 0.7852507462686571 2.097440298507462
C -1.5755522388059702 1.205650746268656 -0.18965970149253808
C -0.9533522388059701 1.2695507462686564 2.508640298507462
H -2.91125223880597 0.4298507462686567 2.840840298507462
C -0.32655223880597006 1.6562507462686575 0.21554029850746192
H -1.7850522388059702 1.178550746268657 -1.2573597014925382
C 0.004447761194029898 1.6956507462686563 1.569740298507462
H -0.7158522388059702 1.2676507462686573 3.5705402985074617
H 0.3943477611940298 1.9193507462686572 -0.5551597014925382
C -1.76045223880597 -2.1592492537313435 -0.1734597014925381
C -0.5287522388059701 -1.936549253731343 0.464840298507462
C -1.8068522388059702 -2.121249253731343 -1.5681597014925381
C 0.6114477611940299 -1.614449253731343 -0.2582597014925381
H -0.4544522388059702 -1.954049253731343 1.5506402985074619
C -0.6479522388059701 -1.8270492537313432 -2.2998597014925384
H -2.74345223880597 -2.290549253731343 -2.092259701492538
C 0.5698477611940298 -1.5506492537313434 -1.6506597014925382
H 1.5072477611940298 -1.351949253731343 0.2991402985074618
H -0.7173522388059701 -1.7640492537313435 -3.3840597014925375
C 1.7791477611940298 -1.082849253731343 -2.4255597014925376
H 1.4739477611940297 -0.9102492537313429 -3.464259701492538
H 2.1252477611940295 -0.1337492537313434 -2.0010597014925384
C 1.3965477611940298 2.0964507462686566 1.997440298507462
H 1.51704776119403 1.8448507462686567 3.057640298507462
H 2.1256477611940294 1.5207507462686571 1.4165402985074618
C 3.94864776119403 -1.4275492537313434 -3.522959701492538
H 4.81734776119403 -2.087049253731343 -3.615159701492538
H 3.4305477611940303 -1.3641492537313429 -4.484459701492538
H 4.26984776119403 -0.441449253731343 -3.176459701492538
C 2.60904776119403 -3.4296492537313434 -2.8992597014925376
H 1.9825477611940296 -3.869549253731343 -2.119359701492538
H 2.06294776119403 -3.373349253731343 -3.845759701492538
H 3.5215477611940305 -4.019849253731343 -3.0234597014925377
C 3.7281477611940304 -2.060049253731343 -1.156659701492538
H 3.9048477611940298 -1.032549253731343 -0.8295597014925382
H 3.12924776119403 -2.623249253731343 -0.4404597014925382
H 4.68244776119403 -2.5769492537313434 -1.3005597014925383
C 3.1110477611940297 3.755250746268656 2.588740298507462
H 3.40124776119403 4.809350746268656 2.534540298507462
H 2.9823477611940303 3.461750746268656 3.634840298507462
H 3.86514776119403 3.1392507462686563 2.091540298507462
C 1.99744776119403 3.9574507462686572 0.40494029850746194
H 2.67914776119403 3.230350746268657 -0.04295970149253803
H 1.03214776119403 3.981150746268657 -0.10175970149253821
H 2.4399477611940297 4.958250746268657 0.368240298507462
C 0.7418477611940297 4.4992507462686575 2.475440298507462
H -0.18475223880597014 4.424250746268656 1.901240298507462
H 0.57844776119403 4.189650746268656 3.511940298507462
H 1.1210477611940297 5.524350746268658 2.4432402985074617
N 3.00114776119403 -2.025349253731343 -2.490159701492538
N 1.7831477611940298 3.586450746268657 1.862540298507462
C -3.55075223880597 -3.8435492537313434 0.6444402985074619
H -2.62515223880597 -2.2736492537313433 1.7424402985074618
H -4.67195223880597 -1.3478492537313436 1.5102402985074619
H -4.83415223880597 -1.6757492537313432 -0.1945597014925382
H -3.7169522388059697 0.17335074626865676 -0.900559701492538
H -3.9132522388059705 -4.043149253731343 -0.34225970149253815
H -4.35435223880597 -3.9354492537313432 1.3449402985074619
H -2.78115223880597 -4.545049253731343 0.8904402985074619
H -5.24235223880597 1.138950746268657 1.5249402985074618
H -5.92805223880597 0.6501507462686567 -0.006059701492538094
H -4.89895223880597 2.059650746268657 0.08004029850746197
C 1.6929083899396338 3.709083139258857 -3.1993609716658895
O 2.4063478910203133 3.788604342549922 -2.2112031122502542
O 1.2897123430013466 4.668976622134604 -3.866195968772376
O 1.2637056202870747 2.6563949372794062 -3.685448326300675
O 5.4639834444171935 -4.927024190050686 -8.448585820504793
H 4.882215212155345 -4.153469725941333 -8.402471051857237
H 5.719499069175683 -5.082994441048836 -7.526985586885111
O 7.206040361627042 3.4864863730855102 1.9741141203593466
H 7.4828680372749075 4.347213717463417 1.6255711050290156
H 6.394995179157623 3.2851874170849773 1.4835568998373772
O 3.097487454995228 0.6687641580373236 4.591462089253225
H 3.194806831311382 0.679080667003366 3.6274134050384763
H 2.8082554420344437 1.5680893520417836 4.807149322087005
O 4.729419974701339 -8.014108685748553 1.965175181135265
H 4.6129706270515864 -8.777485262325175 1.379800849048432
H 5.038071818809941 -7.3109270294956845 1.3742170254780053
O 3.7236688097545754 -6.620620001011281 -3.2315898379561485
H 3.8305056629748133 -6.169156728666136 -2.3808641727635362
H 2.8437989327092636 -6.347996851554189 -3.532368098720392
O -7.245343226728103 5.43645413765686 -4.105650507049592
H -7.383569640658281 6.071074043629002 -4.824759949579666
H -6.622750479983395 5.885101509335035 -3.5139954116712584
O -4.1207363328505675 4.097131397738321 -1.2451176121568586
H -3.8586185276306186 3.230152789185972 -1.589515209998815
H -3.3178462872130843 4.6335937241576195 -1.3259736029617006
O -4.847686093746168 3.63241850651696 8.791938361172555
H -5.062542243346904 2.8682261571376837 9.347648937847977
H -5.009647701269785 4.39410209841023 9.368625874327584
O -5.992100075971376 -0.029834468519259083 -7.246496491455471
H -5.9056561249724595 -0.1413061857111435 -8.205177281135743
H -5.707851056080202 -0.8828070758070594 -6.885107268860828
O -8.645735353296507 -5.17593297077307 -3.3848618237875363
H -8.812680007610595 -5.367262183976045 -4.320003509026239
H -8.151504750024543 -5.948658022957018 -3.0724613615331666
O 0.2442152086076428 -4.054424736751253 9.159334244504276
H 0.2198631308267811 -3.6265960001820883 10.028435449988072
H 0.4168579865370017 -3.325663957132544 8.544465037584327
O -8.014604455217235 -4.831789369676707 0.22769511077098392
H -8.221160071494017 -4.655602231077716 -0.7024985392163832
H -7.249223458495923 -5.4248111572168645 0.18923690409718685
O 8.013759759504097 8.313387250580758 -3.4946547405256756
H 7.898794878353987 9.262708143882085 -3.338001382618117
H 8.211004161661407 7.953510787324101 -2.6168475172064074
O 8.222579290714911 2.214375524431469 5.115041446037649
H 8.418746330516504 1.3947970950641595 5.5933478828658565
H 7.343239403316129 2.0606477223411566 4.738091754972675
O 0.6576166920879083 5.287151135789806 5.41842086192232
H 0.4774040682347298 4.9348719406331485 6.302949061452291
H -0.07941975798137646 5.89426452241458 5.253640549535604
O 7.4722418816914065 -4.902280532439317 -6.07216751465854
H 8.146795467814046 -4.58860833287971 -6.693097919432314
H 7.529803504306203 -4.2811897468869 -5.330618568193215
O -6.973137329978041 -3.7178165517790926 7.191973814461177
H -6.395240203701101 -2.940230922558687 7.211022635179602
H -7.850456398107328 -3.3625576826246304 7.399493290375738
O -6.081946225597333 1.6654819756031434 4.1418254487437265
H -6.61768060936684 1.8931329982151657 3.367144198905569
H -5.170108498105153 1.8045040660906428 3.8448628898606603
O -9.571917291489692 1.5614334637811655 -5.550205076064856
H -9.79704636997329 1.7564597781552882 -4.628115605556287
H -8.686764283790867 1.1706912574549664 -5.497416578671444
O -2.472058587574841 6.299716972732611 2.5517753074490312
H -2.69025706702955 6.737868319482947 3.388064837339559
H -1.6679459013882427 5.797952587532798 2.753262860312293
C 11.303057622166518 2.2194042350016217 4.161145663352854
O 11.83329424724826 2.5252775328823795 5.189789870241453
O 10.77282099708478 1.9135309371208638 3.1325014564642535
O -6.507289585141647 -11.103154893016539 7.111848692623298
H -7.20504283189341 -10.834569193840704 6.495432043151855
H -5.83316635374641 -10.413546777540684 7.0171889849167695
O 9.99072948291431 -0.43515661402564376 -13.410601823575043
H 10.13294913591825 0.4549507692292658 -13.055004054354626
H 9.045707353443348 -0.5956553886880762 -13.268703048238445
O 14.200548550858006 0.11383691902232718 -6.558316361224364
H 13.56863664638874 -0.26478358386343714 -5.928791765450255
H 13.952209427914688 1.0492976168083241 -6.605251499590807
O 11.625102395423834 -13.74903626884102 2.93309292794876
H 12.529470955689751 -14.091340853404251 2.870543463606128
H 11.419354609608959 -13.464985521964662 2.0297962069698454
O -10.423860681828799 -1.7531066192440656 5.540357132053616
H -11.29906673724357 -1.972947373013235 5.893417694064619
H -9.824814829827147 -1.9089958661504045 6.2858801392093895
O 1.1534661258533436 -10.350787932436466 3.905071474917495
H 0.25978412372447013 -10.048361646459858 3.6840778607081126
H 1.4405289539377748 -10.830714360109326 3.113726100852963
O -14.185662964933696 -4.028445534777017 17.164605373712735
H -14.258310849509595 -3.156155483244703 17.58029721602432
H -14.922824807229631 -4.530420315643528 17.543519192327043
O 1.4398074837379218 18.416487741375807 3.9365270435801616
H 1.7783868534605616 17.550864845789864 4.210440113614482
H 2.2257737597873057 18.983183502964405 3.9278742399547357
O 1.4293574662037871 19.03419454570204 7.043528001895456
H 1.6398059871306838 18.939090338767322 6.102446726572756
H 1.2449010932466233 19.979752995513245 7.147724972898075
O 7.279149519663218 0.2881957418977197 8.256847883305701
H 8.155351529989256 0.1191159775556132 7.879158292119193
H 6.764246442280678 0.6292167806425681 7.510160923237845
O 0.9598402591493356 -11.47945824945147 16.66622922137242
H 1.0474201214121694 -11.550307433191554 15.703796097571399
H 0.10610740480566516 -11.038608774434383 16.791743754759462
O 0.04682173106502163 8.084839542905991 -1.6921117302377386
H 0.9476070926193018 8.435884844405694 -1.7578406097695638
H -0.46233579570899697 8.629353585108557 -2.311163436538259
O 14.581490301343983 -7.243359484759595 19.1160683400902
H 14.23157631573331 -7.502456403498721 19.98174515407678
H 15.484677371032811 -7.594373943988028 19.114090750781507
O -11.40142081471497 -0.1592957199705971 15.370839483559806
H -11.512772893325723 -0.6636379127864904 14.550957160275104
H -12.307734100619601 -0.015448789136719654 15.682072888872314
O -2.9168116820376113 9.741523088445193 -8.173555877266388
H -3.475629498516976 9.935413173240082 -7.406029565076723
H -2.4223232726967767 8.95117445067314 -7.909373765647468
O -10.0572129328283 4.07534310492801 0.4262762220806895
H -10.322720717639886 4.570694066587732 1.2156433089846432
H -10.891545603857793 3.7291307513134457 0.07557985118778277
O -12.593971901576893 7.417752153686285 7.226137018634874
H -11.998296533204892 7.608411758599905 6.486010591955578
H -12.76342118424537 8.286708972230953 7.620044282350418
O 4.502650476875987 8.141182432893068 15.596736798470149
H 3.57998332718961 8.088291799576504 15.305437521613865
H 4.697143704059583 7.2490956954643675 15.921260421313733
O -9.328625690274766 -13.462473750773787 -6.163878221037749
H -9.368806334445296 -13.480125104711757 -5.195869283869192
H -10.147972073771628 -13.899853122433447 -6.440162012450159
O -2.916096563734097 5.4375767236941455 8.008922837783011
H -2.2047095883624834 5.992007057527413 7.654658906374294
H -3.6775792057647436 6.035051064960907 8.055080629258288