194

C -5.0710522388059704 1.0783507462686561 0.47044029850746183
C -3.8153522388059704 0.1782507462686569 0.19534029850746193
C -4.11845223880597 -1.3219492537313435 0.5608402985074619
C -2.96945223880597 -2.3874492537313436 0.7034402985074619
C -2.52015223880597 0.7359507462686565 0.7384402985074618
C -2.20305223880597 0.7852507462686571 2.097440298507462
C -1.5755522388059702 1.205650746268656 -0.18965970149253808
C -0.9533522388059701 1.2695507462686564 2.508640298507462
H -2.91125223880597 0.4298507462686567 2.840840298507462
C -0.32655223880597006 1.6562507462686575 0.21554029850746192
H -1.7850522388059702 1.178550746268657 -1.2573597014925382
C 0.004447761194029898 1.6956507462686563 1.569740298507462
H -0.7158522388059702 1.2676507462686573 3.5705402985074617
H 0.3943477611940298 1.9193507462686572 -0.5551597014925382
C -1.76045223880597 -2.1592492537313435 -0.1734597014925381
C -0.5287522388059701 -1.936549253731343 0.464840298507462
C -1.8068522388059702 -2.121249253731343 -1.5681597014925381
C 0.6114477611940299 -1.614449253731343 -0.2582597014925381
H -0.4544522388059702 -1.954049253731343 1.5506402985074619
C -0.6479522388059701 -1.8270492537313432 -2.2998597014925384
H -2.74345223880597 -2.290549253731343 -2.092259701492538
C 0.5698477611940298 -1.5506492537313434 -1.6506597014925382
H 1.5072477611940298 -1.351949253731343 0.2991402985074618
H -0.7173522388059701 -1.7640492537313435 -3.3840597014925375
C 1.7791477611940298 -1.082849253731343 -2.4255597014925376
H 1.4739477611940297 -0.9102492537313429 -3.464259701492538
H 2.1252477611940295 -0.1337492537313434 -2.0010597014925384
C 1.3965477611940298 2.0964507462686566 1.997440298507462
H 1.51704776119403 1.8448507462686567 3.057640298507462
H 2.1256477611940294 1.5207507462686571 1.4165402985074618
C 3.94864776119403 -1.4275492537313434 -3.522959701492538
H 4.81734776119403 -2.087049253731343 -3.615159701492538
H 3.4305477611940303 -1.3641492537313429 -4.484459701492538
H 4.26984776119403 -0.441449253731343 -3.176459701492538
C 2.60904776119403 -3.4296492537313434 -2.8992597014925376
H 1.9825477611940296 -3.869549253731343 -2.119359701492538
H 2.06294776119403 -3.373349253731343 -3.845759701492538
H 3.5215477611940305 -4.019849253731343 -3.0234597014925377
C 3.7281477611940304 -2.060049253731343 -1.156659701492538
H 3.9048477611940298 -1.032549253731343 -0.8295597014925382
H 3.12924776119403 -2.623249253731343 -0.4404597014925382
H 4.68244776119403 -2.5769492537313434 -1.3005597014925383
C 3.1110477611940297 3.755250746268656 2.588740298507462
H 3.40124776119403 4.809350746268656 2.534540298507462
H 2.9823477611940303 3.461750746268656 3.634840298507462
H 3.86514776119403 3.1392507462686563 2.091540298507462
C 1.99744776119403 3.9574507462686572 0.40494029850746194
H 2.67914776119403 3.230350746268657 -0.04295970149253803
H 1.03214776119403 3.981150746268657 -0.10175970149253821
H 2.4399477611940297 4.958250746268657 0.368240298507462
C 0.7418477611940297 4.4992507462686575 2.475440298507462
H -0.18475223880597014 4.424250746268656 1.901240298507462
H 0.57844776119403 4.189650746268656 3.511940298507462
H 1.1210477611940297 5.524350746268658 2.4432402985074617
N 3.00114776119403 -2.025349253731343 -2.490159701492538
N 1.7831477611940298 3.586450746268657 1.862540298507462
C -3.55075223880597 -3.8435492537313434 0.6444402985074619
H -2.62515223880597 -2.2736492537313433 1.7424402985074618
H -4.67195223880597 -1.3478492537313436 1.5102402985074619
H -4.83415223880597 -1.6757492537313432 -0.1945597014925382
H -3.7169522388059697 0.17335074626865676 -0.900559701492538
H -3.9132522388059705 -4.043149253731343 -0.34225970149253815
H -4.35435223880597 -3.9354492537313432 1.3449402985074619
H -2.78115223880597 -4.545049253731343 0.8904402985074619
H -5.24235223880597 1.138950746268657 1.5249402985074618
H -5.92805223880597 0.6501507462686567 -0.006059701492538094
H -4.89895223880597 2.059650746268657 0.08004029850746197
C -3.083448428601466 0.8599257461714467 -3.3751993536542217
O -2.1307916907141227 0.12681206820307445 -3.1589472472285696
O -4.233965382346891 0.6736543883416448 -2.9625915683464434
O -3.044426156703423 1.9015590112371086 -4.040124753834245
O 6.34190688096424 5.420512015716071 -8.073874622342146
H 6.885000747186696 6.209746056367902 -7.92852663147908
H 5.464293674683755 5.775214663518664 -8.281101638206188
O -1.8923071894055175 5.925482178283074 -5.603585691836223
H -1.3863782656256796 5.309076226158293 -6.154082724678471
H -2.300290403402297 5.35865852287059 -4.9318546555860845
O 2.2996932790268967 -3.794381872775427 5.92760169399026
H 3.092320343521492 -3.373500516316664 5.562131343187199
H 2.568822267190493 -4.713831585758056 6.073010625374131
O -4.023914252982232 -0.8532410156947321 -7.9599358458738285
H -3.980765838146433 -0.840356788775467 -8.927892233266283
H -3.755007808758349 -1.7542139301901092 -7.725630327585051
O -2.134694085905489 -8.164431107979363 0.33221076538361216
H -1.7282586967561722 -8.406605018632103 -0.5134424900031354
H -3.0800029593410105 -8.102686209151393 0.12839554128887198
O -0.3384777077848824 9.80399639663602 -1.1472745876169907
H 0.18578144270926478 9.14483253018223 -1.6264642131149174
H 0.17384370231990687 9.969912963411902 -0.3416937971821994
O -1.597264266593963 -0.9133357712424741 8.01072298744681
H -1.7294498655434283 -1.7588977295152908 8.46516693234234
H -0.6417395610819305 -0.7631894681770252 8.068951581212424
O 5.99962152281841 -2.45106145791695 5.101208104860318
H 6.825648160848861 -2.4503743863366036 5.607811379718223
H 6.240648849158632 -2.869458823176376 4.261082270832311
O -0.8593705968027174 -6.1657799062067955 0.5440329115766449
H -0.5294259658019798 -5.8200085716910825 1.386971866425103
H -0.37489708668481114 -6.996654956175947 0.4261600409371542
O 9.511872084438176 4.1579997568160625 0.542284324176654
H 8.980004366445744 3.7578566932173767 1.2465354272012643
H 9.325027325870069 3.608047770214162 -0.23334689807284192
O -2.2633416007592393 1.430879340169862 5.5976257403288505
H -2.2826111557433704 1.8239468881238623 6.483116532994785
H -1.6189482368095418 0.7113345941959381 5.674920600047414
O -5.885234088450032 -9.2347670744701 4.206524490329258
H -5.849110792936277 -9.095818926924249 5.16483335323036
H -6.520214660160476 -8.571205640866378 3.8975781492212054
O 11.139290047292302 1.2294009602571707 -3.6445331668849583
H 11.14925266784451 1.0053448635192401 -2.7018418236520327
H 12.053806323089539 1.083153957870028 -3.929548499621161
O -5.964351979012992 6.919547949444431 -9.601651236242002
H -5.504611511755166 7.432322250748607 -10.283317265605042
H -5.752053094656233 5.999193703851686 -9.818074873168012
O 8.050177193054548 -5.493712966947937 2.639351526516234
H 8.169743691535093 -4.972311768541348 1.831383705596815
H 7.843519067988323 -6.383276375681303 2.315420506873491
O -2.287815901673306 5.4284537333842735 1.7016599585507346
H -2.313328261110324 5.864285084337562 0.836577586783636
H -3.1351379890986104 5.664936351031488 2.1079642730884274
O -8.747288666915203 -0.17154954652734977 -3.2908818292448925
H -8.860598573973267 -1.0089685194736266 -3.765073442005069
H -9.027268023908013 -0.3753005063255812 -2.3858630170983197
O 9.695726377831003 -0.6421520140870678 3.6013426589278863
H 9.138891689643067 0.1403847138385812 3.4727395626274316
H 9.063622506511285 -1.3489952098858202 3.800790237794189
O 6.47704025920652 5.920248456282178 0.4254948254493611
H 6.510770927314367 5.895102536031217 1.3935843262826941
H 6.499229457774895 4.9868489207916165 0.16619790893685193
O 5.7382629782139745 -0.12180761866005385 1.1254269027971953
H 6.591568688598216 0.2163699845685354 0.8148264678325736
H 5.146785738132211 0.6432422633191794 1.063658813553488
C 10.169776922555982 -5.121693532905569 11.504081567010946
O 9.885471161523316 -3.9603361239640815 11.447182883016065
O 10.454082683588647 -6.283050941847058 11.560980251005827
O -9.871346723774563 -1.4620255328710337 0.3393523491930308
H -9.31317945172672 -0.7367976932813924 0.02082254839126474
H -10.771505582790198 -1.178438567013827 0.11968349470616513
O 4.792294445241764 -0.503022034706404 17.399909796682355
H 4.8385327748428635 0.11693756299170399 16.656620168746045
H 5.427243908544293 -1.196632958157592 17.166018774577996
O -2.215645608946304 -11.940860930766936 -3.8595888707156156
H -1.42379738676826 -12.430308071653435 -3.5905438071825655
H -2.328217815124697 -12.173021349932593 -4.793607597759648
O 5.834108749156004 2.2781690898784586 -8.036755078030861
H 5.741775593451947 2.4714380735529895 -7.0917211922854095
H 6.470438198480831 2.938585557543447 -8.349639825915546
O 9.229887093021294 8.644567447282684 14.179377374063499
H 9.311252661582621 8.71420681744874 13.216310730847376
H 9.229479310555936 7.689968186424169 14.345816639808804
O -13.208824708794312 8.661783148819891 8.56435329209445
H -12.84871131209319 9.094645990701395 7.775737125296782
H -12.706845958435265 7.835354188052609 8.627554963694806
O 7.37839523487733 -14.81148536522565 -6.928760580625055
H 6.772390219054329 -15.055703082192304 -7.644360318199741
H 7.553620262545241 -13.870740407267332 -7.081263229961986
O 1.6272034092176955 6.021374594785513 11.803951395088555
H 1.6364959106551606 5.621337121958788 12.686476763931537
H 1.6942119481654485 6.972379968432603 11.97733126503442
O -11.336729794692197 4.070166783413015 7.382221756850534
H -11.057754617574705 3.599456736266769 6.582489139679117
H -11.176854670169394 3.4343910223945056 8.09579801105197
O -3.154475776213596 3.9297570334105663 19.75534046915634
H -2.6660679925843276 4.401847258860197 20.446394745480035
H -3.2793136832984064 4.594386464893851 19.06133386972022
O 0.5336781290318866 15.02096035500072 9.001933263734749
H 0.48722521605160907 14.796479487191696 8.060435614367872
H 1.484087422747681 15.056511335281135 9.187460206575258
O -10.185114919119611 3.799951267686779 0.6581914089714873
H -10.9193112177175 3.9443443116608368 1.2738811042539955
H -9.556337683674379 4.5048597301414 0.8743052494484718
O -7.469851970765047 6.735253118796169 15.547487528340879
H -7.473978663677039 6.795297535051357 14.580355171637732
H -7.067079120332365 7.569370102287125 15.832065870992388
O 8.789347001163087 -9.462790690796298 -1.4523922055132
H 8.099327165124308 -8.879415328616853 -1.8024110186861733
H 9.397171239827278 -8.860116274749764 -0.9981949053943397
O -1.556982714416479 1.9359598213657316 12.111608035835303
H -1.24678140684605 2.123885552346702 11.21303893703607
H -1.121127003685284 1.101166919389006 12.33988977959131
O 5.570596214687749 -5.509530226195504 6.831736673998474
H 5.586075009197873 -6.201333406458636 6.153403331460803
H 6.300709779243002 -5.745584602106824 7.423492078507416
O -2.2681407762498567 6.680255058394855 5.602891032661659
H -1.9206867577184434 7.039136825441494 4.77256161659364
H -1.5361007462942609 6.787394176895905 6.228670984505298
O 14.615286680902583 -10.372539252145353 0.07769286355002747
H 14.10745328226897 -9.661327489668462 0.4963220849939558
H 14.297484761683277 -11.176267018752904 0.5158544337779059
O 15.0861486658968 0.253673562113808 -7.448205576131909
H 14.66988282754938 0.9801079413762812 -6.960370356666909
H 15.041655277927273 0.5374464700865662 -8.373654234582325
O -14.209170714697054 -12.604757242630715 9.016121520453718
H -13.980268650025941 -11.675334792117384 9.166936341247622
H -13.827563472497111 -13.066372398306923 9.777862490239762