194

C -5.0710522388059704 1.0783507462686561 0.47044029850746183
C -3.8153522388059704 0.1782507462686569 0.19534029850746193
C -4.11845223880597 -1.3219492537313435 0.5608402985074619
C -2.96945223880597 -2.3874492537313436 0.7034402985074619
C -2.52015223880597 0.7359507462686565 0.7384402985074618
C -2.20305223880597 0.7852507462686571 2.097440298507462
C -1.5755522388059702 1.205650746268656 -0.18965970149253808
C -0.9533522388059701 1.2695507462686564 2.508640298507462
H -2.91125223880597 0.4298507462686567 2.840840298507462
C -0.32655223880597006 1.6562507462686575 0.21554029850746192
H -1.7850522388059702 1.178550746268657 -1.2573597014925382
C 0.004447761194029898 1.6956507462686563 1.569740298507462
H -0.7158522388059702 1.2676507462686573 3.5705402985074617
H 0.3943477611940298 1.9193507462686572 -0.5551597014925382
C -1.76045223880597 -2.1592492537313435 -0.1734597014925381
C -0.5287522388059701 -1.936549253731343 0.464840298507462
C -1.8068522388059702 -2.121249253731343 -1.5681597014925381
C 0.6114477611940299 -1.614449253731343 -0.2582597014925381
H -0.4544522388059702 -1.954049253731343 1.5506402985074619
C -0.6479522388059701 -1.8270492537313432 -2.2998597014925384
H -2.74345223880597 -2.290549253731343 -2.092259701492538
C 0.5698477611940298 -1.5506492537313434 -1.6506597014925382
H 1.5072477611940298 -1.351949253731343 0.2991402985074618
H -0.7173522388059701 -1.7640492537313435 -3.3840597014925375
C 1.7791477611940298 -1.082849253731343 -2.4255597014925376
H 1.4739477611940297 -0.9102492537313429 -3.464259701492538
H 2.1252477611940295 -0.1337492537313434 -2.0010597014925384
C 1.3965477611940298 2.0964507462686566 1.997440298507462
H 1.51704776119403 1.8448507462686567 3.057640298507462
H 2.1256477611940294 1.5207507462686571 1.4165402985074618
C 3.94864776119403 -1.4275492537313434 -3.522959701492538
H 4.81734776119403 -2.087049253731343 -3.615159701492538
H 3.4305477611940303 -1.3641492537313429 -4.484459701492538
H 4.26984776119403 -0.441449253731343 -3.176459701492538
C 2.60904776119403 -3.4296492537313434 -2.8992597014925376
H 1.9825477611940296 -3.869549253731343 -2.119359701492538
H 2.06294776119403 -3.373349253731343 -3.845759701492538
H 3.5215477611940305 -4.019849253731343 -3.0234597014925377
C 3.7281477611940304 -2.060049253731343 -1.156659701492538
H 3.9048477611940298 -1.032549253731343 -0.8295597014925382
H 3.12924776119403 -2.623249253731343 -0.4404597014925382
H 4.68244776119403 -2.5769492537313434 -1.3005597014925383
C 3.1110477611940297 3.755250746268656 2.588740298507462
H 3.40124776119403 4.809350746268656 2.534540298507462
H 2.9823477611940303 3.461750746268656 3.634840298507462
H 3.86514776119403 3.1392507462686563 2.091540298507462
C 1.99744776119403 3.9574507462686572 0.40494029850746194
H 2.67914776119403 3.230350746268657 -0.04295970149253803
H 1.03214776119403 3.981150746268657 -0.10175970149253821
H 2.4399477611940297 4.958250746268657 0.368240298507462
C 0.7418477611940297 4.4992507462686575 2.475440298507462
H -0.18475223880597014 4.424250746268656 1.901240298507462
H 0.57844776119403 4.189650746268656 3.511940298507462
H 1.1210477611940297 5.524350746268658 2.4432402985074617
N 3.00114776119403 -2.025349253731343 -2.490159701492538
N 1.7831477611940298 3.586450746268657 1.862540298507462
C -3.55075223880597 -3.8435492537313434 0.6444402985074619
H -2.62515223880597 -2.2736492537313433 1.7424402985074618
H -4.67195223880597 -1.3478492537313436 1.5102402985074619
H -4.83415223880597 -1.6757492537313432 -0.1945597014925382
H -3.7169522388059697 0.17335074626865676 -0.900559701492538
H -3.9132522388059705 -4.043149253731343 -0.34225970149253815
H -4.35435223880597 -3.9354492537313432 1.3449402985074619
H -2.78115223880597 -4.545049253731343 0.8904402985074619
H -5.24235223880597 1.138950746268657 1.5249402985074618
H -5.92805223880597 0.6501507462686567 -0.006059701492538094
H -4.89895223880597 2.059650746268657 0.08004029850746197
C -0.3464684871575764 3.210052134951004 -2.9828848546305795
O -0.8868238870875312 3.3561633765235457 -4.068446020780451
O -0.9040342163521436 3.3365898412573207 -1.8866457700279244
O 0.8415639269258843 2.9130375788608753 -2.812562451648444
O -1.8587490012728223 -8.534591154214494 0.8173845263901922
H -1.6650399260270565 -8.552503624570134 1.7666596679972972
H -2.617958432917614 -7.9368663790165455 0.7446653658054228
O 0.5105446421236235 -4.3294748163577825 6.069377518842745
H 0.03715293637729822 -5.076575711849132 6.465241007670156
H -0.1749368841842589 -3.851425390430071 5.5789228647096625
O 6.0642844865632615 5.296158667775406 -6.906804990858898
H 6.108734951797189 4.885901778626989 -6.030060559484081
H 6.386581840730123 4.605385368700201 -7.5050679840999965
O 0.10196606827107704 0.8536698027516665 7.200528379137815
H 0.9629801034476568 0.4708053105681791 7.4264420103202315
H 0.07501141267050848 0.8143588129783508 6.232700896099388
O -5.0615792192284115 0.5592402116893049 6.475188363521373
H -4.962341304363918 0.585750716562965 7.438732024330104
H -5.575012285288472 1.3552096203124846 6.270784030122515
O 7.178128299618417 0.9560842571245345 -0.874899131790035
H 7.400812720613807 0.4720429166794451 -1.684271102076917
H 7.624100879718592 0.4575299798414598 -0.17381851253034952
O -2.2730705692964337 -8.32330062972466 -3.299279966528239
H -1.591496295573821 -7.698803824945147 -3.589844257382558
H -2.6243350129191185 -8.687593869826443 -4.125636832635484
O 3.458431716426469 11.481685827825281 -1.7954735950651166
H 4.146378427185798 10.803953948976169 -1.7156226060476207
H 2.671975921196139 11.062902115207649 -1.4145937866021017
O 0.026276944327013108 -6.906153543475466 -5.16512706259803
H 0.5766955905299056 -6.339051185577436 -4.604411817149264
H 0.5183970925042325 -7.739698126197107 -5.209659440408293
O -4.073749591960873 6.625898838460749 -4.379805208125993
H -3.147675395167427 6.505567379603276 -4.638405824796969
H -4.394495794442909 5.723622571235093 -4.231544102320439
O 8.08561665409207 3.7251995874564345 -2.9411963846924296
H 7.509733895214187 3.2266943406798907 -3.5402113459942797
H 8.52747856459995 4.364810590321099 -3.519657931691695
O -1.5668608860277151 9.691165637299434 3.263228519565788
H -1.865011277728651 8.912036332010038 3.7562104933415443
H -1.2079951665042339 9.324741149932809 2.4410907970952764
O -5.984434766586571 2.067798430217849 -5.053143080608641
H -5.7256877484438435 1.4536019201898287 -5.7565490690475
H -6.573151710310643 1.5436233022097834 -4.489569891351103
O -5.100541173427427 6.971318458026909 5.218809906954137
H -4.97460925586036 6.603475464121695 4.3312289017085694
H -6.044635802928423 6.841410576049777 5.394227172488616
O 11.539283444480017 3.325438360003013 -1.7926931653467735
H 10.846245416376767 3.6574052389234626 -1.2023850764621828
H 12.029419618154336 2.693175165841376 -1.2459100923969786
O 7.82620500008101 5.439296415337827 2.7592646277787805
H 8.448247057664453 4.78315035501284 3.107837981633249
H 6.9739553817340525 4.978180794928547 2.761482045653205
O 1.5075119070897052 -1.7746926281587656 5.239422876187746
H 1.067717980233824 -2.439119257658968 4.687983021977257
H 1.9606265133979401 -1.203519323892737 4.601135985875906
O -1.1850086075032165 -12.767686784285399 -1.737150999531048
H -0.39239251104798134 -12.223909469559077 -1.614540589984811
H -1.565836081954084 -12.83009124578506 -0.8483101464036116
O 2.2385201324634503 -0.9557395542629901 -9.263502631525729
H 1.5182046919730783 -1.450339665448638 -9.682410441319611
H 2.9083331048124457 -1.6306592318166047 -9.076965891916805
O 1.2017580685311675 7.842248698941009 -0.2786832825796819
H 1.4433504405710185 7.855108404022038 0.6596317554845008
H 1.0095429028808192 8.769620285715078 -0.48361550171116857
C -7.2619924785974685 6.34117040086325 0.2302676442959155
O -6.1469295040724665 6.2390278750022485 -0.19283958153955516
O -8.377055453122471 6.443312926724253 0.6533748701313862
O -13.256383540816941 -7.231061407445283 -6.80669213523164
H -14.056017130641129 -7.427088429602941 -7.317697894014149
H -13.177062107026796 -7.981677098777571 -6.1990358686077975
O -3.273805675532919 19.585855295262995 -3.8972075774642443
H -2.7615620622869823 20.37747384574314 -4.120621784990236
H -2.6572737394827746 18.855454211105553 -4.056470166894069
O -0.37277980302468805 6.41743590868822 -14.635191710154682
H 0.12152900192109062 7.209462747735658 -14.37573140783157
H -1.2278501330523204 6.762372159096982 -14.933244823140232
O 11.28391046427083 19.34919574839286 -1.909308777543882
H 11.335608993320077 18.78522924911504 -1.123028670529548
H 10.568330349956721 19.969963090411774 -1.7054584614269412
O 16.714863831439573 -0.42733778705997816 -2.5953729973734045
H 16.471949379095143 -0.3946329887123148 -1.6578814923946954
H 17.425753461318585 0.2262015052555979 -2.6758979738101516
O -9.165375015460592 1.1965873322595808 -12.298437748980874
H -10.049302596522244 0.8016821967290682 -12.33953911477478
H -9.098328152671503 1.7063236860884015 -13.11979973499888
O -10.184525535532925 -12.740264804847733 -0.23303176124086455
H -10.534741311917674 -11.959497787763526 0.22163199573197634
H -9.870836693622971 -12.395370938191977 -1.0825077617873378
O -1.8663254131829747 14.7161408496917 9.928785731101286
H -1.5771979724744485 13.800595156527773 10.059739019178837
H -2.7641073362764086 14.732448415067571 10.293043368190983
O 12.348067442557529 12.896410318387872 11.824082606435361
H 12.783530908616623 12.620058772392554 11.00373588116988
H 11.6365730872742 12.24904691447605 11.940951550024597
O 7.720028450784977 -5.752334740186941 12.01066542310986
H 6.887128504815921 -5.636898493789143 11.529085201420543
H 8.147244230162238 -6.498544108797012 11.563876658311958
O 8.213796054694477 7.823832792924859 6.75140673861506
H 7.730567684785292 8.144626584808893 7.527647063838876
H 8.196608844287669 8.574134479366865 6.138451664061703
O -2.022735280283392 -14.628664680368606 6.594384212232718
H -1.8564628299046242 -14.700987313772327 7.5462719502788556
H -1.3539120631241417 -13.998377611479587 6.287177996019503
O -8.461146139841391 5.891342355039245 -5.53221198129153
H -8.73688094888865 6.677187424598856 -6.0275756846737245
H -8.953249874362262 5.167735084284635 -5.948371057224851
O -11.626804620730153 -13.855823407489959 8.604234432057225
H -11.364911949149123 -13.717798139550307 7.681559727254749
H -10.896307395171533 -14.369347611338238 8.980570239300102
O -9.00612293560301 -9.108747620650758 14.763308502344781
H -8.144146160618837 -9.456541083300396 14.489441557230803
H -9.417216557245354 -8.822364032487583 13.933881942017852
O 12.410660967255481 3.2184949510314103 11.433787477880536
H 13.3453488542365 3.2136475961430087 11.689330847940383
H 11.992190575733384 2.6144323306709305 12.06541460396251
O 0.9296116943171138 4.35070766368965 8.388008289986294
H 0.6391669531044242 4.787389496344955 9.202820038938588
H 0.7433537029156219 3.412964474017099 8.545829756085904
O -15.57968817212455 1.3059822217999306 4.757451528463811
H -16.25093875760785 1.9081651873321994 5.1120861071657355
H -14.74669300160303 1.7855680206289835 4.880245875847226
O -5.1051766866691635 8.25048685597148 15.467499338526226
H -4.171992305021988 8.472027822036035 15.329463592775486
H -5.0773215851536975 7.436696736651219 15.992791332864876
O -3.2478882485704865 15.769987407149149 12.810445370340023
H -4.0097396746587695 15.800225921759703 13.408471618678167
H -3.305804099410076 14.893307692920466 12.401739636123528