194

C -5.0710522388059704 1.0783507462686561 0.47044029850746183
C -3.8153522388059704 0.1782507462686569 0.19534029850746193
C -4.11845223880597 -1.3219492537313435 0.5608402985074619
C -2.96945223880597 -2.3874492537313436 0.7034402985074619
C -2.52015223880597 0.7359507462686565 0.7384402985074618
C -2.20305223880597 0.7852507462686571 2.097440298507462
C -1.5755522388059702 1.205650746268656 -0.18965970149253808
C -0.9533522388059701 1.2695507462686564 2.508640298507462
H -2.91125223880597 0.4298507462686567 2.840840298507462
C -0.32655223880597006 1.6562507462686575 0.21554029850746192
H -1.7850522388059702 1.178550746268657 -1.2573597014925382
C 0.004447761194029898 1.6956507462686563 1.569740298507462
H -0.7158522388059702 1.2676507462686573 3.5705402985074617
H 0.3943477611940298 1.9193507462686572 -0.5551597014925382
C -1.76045223880597 -2.1592492537313435 -0.1734597014925381
C -0.5287522388059701 -1.936549253731343 0.464840298507462
C -1.8068522388059702 -2.121249253731343 -1.5681597014925381
C 0.6114477611940299 -1.614449253731343 -0.2582597014925381
H -0.4544522388059702 -1.954049253731343 1.5506402985074619
C -0.6479522388059701 -1.8270492537313432 -2.2998597014925384
H -2.74345223880597 -2.290549253731343 -2.092259701492538
C 0.5698477611940298 -1.5506492537313434 -1.6506597014925382
H 1.5072477611940298 -1.351949253731343 0.2991402985074618
H -0.7173522388059701 -1.7640492537313435 -3.3840597014925375
C 1.7791477611940298 -1.082849253731343 -2.4255597014925376
H 1.4739477611940297 -0.9102492537313429 -3.464259701492538
H 2.1252477611940295 -0.1337492537313434 -2.0010597014925384
C 1.3965477611940298 2.0964507462686566 1.997440298507462
H 1.51704776119403 1.8448507462686567 3.057640298507462
H 2.1256477611940294 1.5207507462686571 1.4165402985074618
C 3.94864776119403 -1.4275492537313434 -3.522959701492538
H 4.81734776119403 -2.087049253731343 -3.615159701492538
H 3.4305477611940303 -1.3641492537313429 -4.484459701492538
H 4.26984776119403 -0.441449253731343 -3.176459701492538
C 2.60904776119403 -3.4296492537313434 -2.8992597014925376
H 1.9825477611940296 -3.869549253731343 -2.119359701492538
H 2.06294776119403 -3.373349253731343 -3.845759701492538
H 3.5215477611940305 -4.019849253731343 -3.0234597014925377
C 3.7281477611940304 -2.060049253731343 -1.156659701492538
H 3.9048477611940298 -1.032549253731343 -0.8295597014925382
H 3.12924776119403 -2.623249253731343 -0.4404597014925382
H 4.68244776119403 -2.5769492537313434 -1.3005597014925383
C 3.1110477611940297 3.755250746268656 2.588740298507462
H 3.40124776119403 4.809350746268656 2.534540298507462
H 2.9823477611940303 3.461750746268656 3.634840298507462
H 3.86514776119403 3.1392507462686563 2.091540298507462
C 1.99744776119403 3.9574507462686572 0.40494029850746194
H 2.67914776119403 3.230350746268657 -0.04295970149253803
H 1.03214776119403 3.981150746268657 -0.10175970149253821
H 2.4399477611940297 4.958250746268657 0.368240298507462
C 0.7418477611940297 4.4992507462686575 2.475440298507462
H -0.18475223880597014 4.424250746268656 1.901240298507462
H 0.57844776119403 4.189650746268656 3.511940298507462
H 1.1210477611940297 5.524350746268658 2.4432402985074617
N 3.00114776119403 -2.025349253731343 -2.490159701492538
N 1.7831477611940298 3.586450746268657 1.862540298507462
C -3.55075223880597 -3.8435492537313434 0.6444402985074619
H -2.62515223880597 -2.2736492537313433 1.7424402985074618
H -4.67195223880597 -1.3478492537313436 1.5102402985074619
H -4.83415223880597 -1.6757492537313432 -0.1945597014925382
H -3.7169522388059697 0.17335074626865676 -0.900559701492538
H -3.9132522388059705 -4.043149253731343 -0.34225970149253815
H -4.35435223880597 -3.9354492537313432 1.3449402985074619
H -2.78115223880597 -4.545049253731343 0.8904402985074619
H -5.24235223880597 1.138950746268657 1.5249402985074618
H -5.92805223880597 0.6501507462686567 -0.006059701492538094
H -4.89895223880597 2.059650746268657 0.08004029850746197
C 2.351568497919478 -1.7458828898975507 2.8700445487896107
O 2.027709410046043 -0.586835375425115 3.078610243468901
O 2.523795307944146 -2.605481488157495 3.741858542642809
O 2.557201379199891 -2.238589188352439 1.754874603893677
O -1.7993921698348438 -4.897908020788151 -3.8114052074898312
H -2.4861057766946253 -5.475272398055356 -3.445287528435019
H -0.9739889448943067 -5.263511489160885 -3.459260969326565
O 1.369409544649828 7.348141357855155 6.644893846705026
H 1.4478226471564675 7.463059709734619 7.603858139396153
H 0.6120080522171369 6.752614377272831 6.54168270893767
O 2.570176206445898 2.2914566199275077 8.206307267997436
H 2.0203490093320804 2.8250635289310257 7.613077905206219
H 3.4725609699479305 2.594145555381944 8.024529680674801
O -1.7663566388345018 4.184685759617424 7.893011727746568
H -1.9726339750998525 4.344651469169328 6.959830079185674
H -1.4245745131427054 3.278043003348057 7.905087959024629
O -7.886131048147913 3.8155720102882054 -7.560587640899383
H -7.049522541253467 3.449949378867846 -7.8852007251783425
H -7.771932831253038 3.843231792228044 -6.5987375236664185
O -1.7447525854001977 4.517130070101547 -8.439595122328726
H -2.417076773191568 4.1305172982112355 -9.020523782339547
H -2.1345762670354422 4.45223893327892 -7.5548417205843705
O -5.023258540682829 1.417766811781806 5.958310363196782
H -5.959153091711695 1.1756161433059509 5.891738597325848
H -4.9928525818141605 2.0307098107462864 6.708202556772435
O -7.595032560222595 0.7243088968946592 -7.093126850293103
H -7.473254561402091 0.7689302335007104 -8.053411397821991
H -8.411785257518092 0.21439226466138583 -6.984214023076071
O 6.6284128809506875 1.2354286292361878 -6.8480369643439944
H 6.90779699030942 0.7739470115119707 -7.652988262771712
H 7.461243804858457 1.4912792922601485 -6.423896616448241
O 9.970228639321219 0.9981792419446358 -4.252051727960778
H 9.271098103571909 0.3832783211782793 -4.5205302345931955
H 9.604845565987315 1.441828194975487 -3.4719025367827703
O 3.4559644958438467 -6.134232379199702 1.1439933004272922
H 4.273571948932873 -5.979517790006795 1.6405301121987317
H 3.403451557082547 -5.3795029702193204 0.5385283098764138
O 5.082907037340994 8.738607556265707 -1.0039947761997503
H 4.93319066069212 9.338017171062091 -1.7504935887592779
H 4.270715742290647 8.211931534843597 -0.9601813877960486
O 7.2738656212400565 2.9438943204857155 1.564665023979598
H 7.306274139702534 3.030063831477308 0.6000449639525747
H 7.994027815740544 2.3286157330782817 1.7690191719437478
O 3.3723800357681983 0.5130860023201942 -8.460210426769514
H 2.731604976344544 0.5467488642391856 -9.186324392926368
H 4.15999905894226 0.9456433878611725 -8.822856710148082
O 0.7607763923523767 9.145661114855654 5.06050394753668
H 0.13402071403275384 9.829584778724644 5.340491623326394
H 0.19876950682376693 8.456848494945392 4.674955792864929
O 4.450817896495742 -6.130694136274783 -6.180359289150617
H 3.516535330217808 -5.973541575688112 -5.976922527600077
H 4.924825414606381 -5.546516871894961 -5.569609143136471
O -4.967954393074381 4.247201162096566 -6.760072207725518
H -5.826774098481034 4.694228454138756 -6.799602837301286
H -4.443276353658043 4.800703110051911 -6.162317665405793
O -0.4694888963913877 -8.129928069245324 -5.600288794491465
H 0.4830201432760747 -8.279498255296907 -5.696842643178426
H -0.542507716401006 -7.175395319052489 -5.450297377958025
O -6.515438845954803 3.7998807717509164 3.980157565777001
H -5.752988271501537 3.246558963475472 3.7532843524999
H -6.124231603980996 4.565798097608074 4.426576078026514
O 1.1119828369713183 -6.87532916206068 2.9524443940985
H 1.0789725561244752 -6.863700681013502 1.9840733615459198
H 1.9976180026431218 -7.213899991361087 3.1523996170168096
C 0.8566467422417139 11.264889356907561 14.777294208874551
O 0.8852063257931038 10.864877893920585 15.905121073675348
O 0.8280871586903258 11.664900819894537 13.649467344073758
O 2.36533854604083 -4.919166039545516 6.089455683499686
H 3.1136461371227115 -4.926158034921038 5.473863108796336
H 2.762719456570863 -4.672610647917447 6.938137481999838
O -2.3412204296894115 -14.451772180274112 -0.9305299022803704
H -2.6253013315634917 -14.676117288745672 -0.031678039960836735
H -1.7681348664398406 -13.679901153429316 -0.809080326684233
O -2.650057183993923 20.973546948003253 5.281957038646772
H -2.58083012986831 20.40862301961436 4.497714775687961
H -1.9011198165640208 20.701397084080863 5.833309208801379
O -2.2879401663582493 -5.553217711810057 -9.866385406539797
H -2.5126056143815467 -6.2821214791037505 -10.464040902113585
H -1.318988572891206 -5.546459979829038 -9.859379203848576
O 7.496894125435539 11.014921710380005 -1.7526160454742397
H 7.863871844521163 11.007756714056917 -0.8558198738597511
H 7.012504151685666 10.1779261524501 -1.8139897665297697
O -3.8604462838584 -6.110344497620465 -14.262903260784167
H -4.247473299698115 -5.790778502908511 -13.434015439101422
H -2.955973610490929 -6.3579061762429685 -14.018763254416697
O -8.515157696673814 -6.692994513894431 -12.34858124054744
H -8.564910393168795 -7.659659298111658 -12.303290832669601
H -9.075827994503475 -6.395214011051837 -11.616503694410138
O 4.034915926443125 -8.506393631563828 -3.185829928721413
H 3.128720664429314 -8.199478421225995 -3.032270306206229
H 4.024082402917367 -9.427616769600373 -2.8855092517540792
O 3.5514088487827284 5.863153208158867 -10.02530370926929
H 2.889512356141442 6.508692991205022 -10.315370560932635
H 3.067472367528124 5.0238488871813995 -10.006982049970347
O 12.386577000049998 18.712857870282953 5.0775878818981965
H 11.96705473690725 18.40885872490975 5.896460855710345
H 11.884773040793501 19.506475221110477 4.838158912807151
O -11.969316047629345 12.811386982615064 -2.9583872436889793
H -11.221678171014242 13.381431473696539 -3.1930236443989344
H -11.59176900737803 12.176495904027753 -2.3312241907053775
O 12.855509707066108 5.960737554207688 -7.6973642327335
H 12.893912060968479 5.988499682388148 -8.665208166616258
H 13.429559975964944 6.690204444249499 -7.419324146756846
O 2.5701767573038983 -8.127530478563491 11.640439764296456
H 3.228688841569139 -8.425232765251184 12.285964775645796
H 2.22484880683902 -8.950043012710434 11.262043567039004
O -12.44917720958462 12.169225999209035 1.4128352821583836
H -12.433551704571277 12.357370236812102 2.363269365275061
H -11.64661470803728 12.595610992654981 1.0766043901003015
O -14.5592905609016 15.844913190880515 1.255747779882543
H -13.690584394768125 15.865853992196888 0.8269372895002478
H -14.375923361929852 16.111437043608362 2.169149909597797
O -5.166166161838449 9.483752731363678 23.346780209169566
H -4.484741074109653 9.786925330641083 22.728141718804483
H -5.9975314059459865 9.76197428377207 22.934001160566716
O -11.784526333117345 5.134306982908528 -16.62415318322405
H -11.647272723001768 4.594323973547103 -17.416962840715193
H -11.392053636147944 5.990183292204433 -16.853069913979105
O -5.076857416721499 11.390734917331873 -2.752046807378254
H -5.4598126630777735 11.543740112671173 -1.8751762089503055
H -5.6451148366498485 11.901507880224983 -3.3479968299252523
O -7.368173014956623 -17.04952186303554 9.515794001563007
H -7.477804349186517 -16.81208935726329 10.44883962352245
H -6.969037447038802 -16.26077106169823 9.118899914793422
O -8.381895532173873 -1.6726797259409285 10.222324652712853
H -8.258715622539645 -1.3048584662616718 11.110300771586818
H -7.782354914651255 -2.433577460276338 10.198923154388222