194

C -5.0710522388059704 1.0783507462686561 0.47044029850746183
C -3.8153522388059704 0.1782507462686569 0.19534029850746193
C -4.11845223880597 -1.3219492537313435 0.5608402985074619
C -2.96945223880597 -2.3874492537313436 0.7034402985074619
C -2.52015223880597 0.7359507462686565 0.7384402985074618
C -2.20305223880597 0.7852507462686571 2.097440298507462
C -1.5755522388059702 1.205650746268656 -0.18965970149253808
C -0.9533522388059701 1.2695507462686564 2.508640298507462
H -2.91125223880597 0.4298507462686567 2.840840298507462
C -0.32655223880597006 1.6562507462686575 0.21554029850746192
H -1.7850522388059702 1.178550746268657 -1.2573597014925382
C 0.004447761194029898 1.6956507462686563 1.569740298507462
H -0.7158522388059702 1.2676507462686573 3.5705402985074617
H 0.3943477611940298 1.9193507462686572 -0.5551597014925382
C -1.76045223880597 -2.1592492537313435 -0.1734597014925381
C -0.5287522388059701 -1.936549253731343 0.464840298507462
C -1.8068522388059702 -2.121249253731343 -1.5681597014925381
C 0.6114477611940299 -1.614449253731343 -0.2582597014925381
H -0.4544522388059702 -1.954049253731343 1.5506402985074619
C -0.6479522388059701 -1.8270492537313432 -2.2998597014925384
H -2.74345223880597 -2.290549253731343 -2.092259701492538
C 0.5698477611940298 -1.5506492537313434 -1.6506597014925382
H 1.5072477611940298 -1.351949253731343 0.2991402985074618
H -0.7173522388059701 -1.7640492537313435 -3.3840597014925375
C 1.7791477611940298 -1.082849253731343 -2.4255597014925376
H 1.4739477611940297 -0.9102492537313429 -3.464259701492538
H 2.1252477611940295 -0.1337492537313434 -2.0010597014925384
C 1.3965477611940298 2.0964507462686566 1.997440298507462
H 1.51704776119403 1.8448507462686567 3.057640298507462
H 2.1256477611940294 1.5207507462686571 1.4165402985074618
C 3.94864776119403 -1.4275492537313434 -3.522959701492538
H 4.81734776119403 -2.087049253731343 -3.615159701492538
H 3.4305477611940303 -1.3641492537313429 -4.484459701492538
H 4.26984776119403 -0.441449253731343 -3.176459701492538
C 2.60904776119403 -3.4296492537313434 -2.8992597014925376
H 1.9825477611940296 -3.869549253731343 -2.119359701492538
H 2.06294776119403 -3.373349253731343 -3.845759701492538
H 3.5215477611940305 -4.019849253731343 -3.0234597014925377
C 3.7281477611940304 -2.060049253731343 -1.156659701492538
H 3.9048477611940298 -1.032549253731343 -0.8295597014925382
H 3.12924776119403 -2.623249253731343 -0.4404597014925382
H 4.68244776119403 -2.5769492537313434 -1.3005597014925383
C 3.1110477611940297 3.755250746268656 2.588740298507462
H 3.40124776119403 4.809350746268656 2.534540298507462
H 2.9823477611940303 3.461750746268656 3.634840298507462
H 3.86514776119403 3.1392507462686563 2.091540298507462
C 1.99744776119403 3.9574507462686572 0.40494029850746194
H 2.67914776119403 3.230350746268657 -0.04295970149253803
H 1.03214776119403 3.981150746268657 -0.10175970149253821
H 2.4399477611940297 4.958250746268657 0.368240298507462
C 0.7418477611940297 4.4992507462686575 2.475440298507462
H -0.18475223880597014 4.424250746268656 1.901240298507462
H 0.57844776119403 4.189650746268656 3.511940298507462
H 1.1210477611940297 5.524350746268658 2.4432402985074617
N 3.00114776119403 -2.025349253731343 -2.490159701492538
N 1.7831477611940298 3.586450746268657 1.862540298507462
C -3.55075223880597 -3.8435492537313434 0.6444402985074619
H -2.62515223880597 -2.2736492537313433 1.7424402985074618
H -4.67195223880597 -1.3478492537313436 1.5102402985074619
H -4.83415223880597 -1.6757492537313432 -0.1945597014925382
H -3.7169522388059697 0.17335074626865676 -0.900559701492538
H -3.9132522388059705 -4.043149253731343 -0.34225970149253815
H -4.35435223880597 -3.9354492537313432 1.3449402985074619
H -2.78115223880597 -4.545049253731343 0.8904402985074619
H -5.24235223880597 1.138950746268657 1.5249402985074618
H -5.92805223880597 0.6501507462686567 -0.006059701492538094
H -4.89895223880597 2.059650746268657 0.08004029850746197
C 0.13777696871890344 2.436451450659235 -4.051025674215407
O 0.8670526670789791 2.6056657019417067 -5.016064011041636
O -0.8463002520993727 1.6884567379334845 -4.024055370158916
O 0.27098666686321304 2.9870261867580146 -2.952039313658525
O -7.338729936690022 7.469439628788846 -5.13674404315154
H -6.535195729998126 7.529948898584034 -4.598563066300001
H -7.927767337149196 6.9038453103516435 -4.615112034823969
O 3.884505696948721 4.627284318289979 9.991463697146264
H 4.2054701654956315 4.797961741137666 9.093233000632017
H 4.526501311425731 3.9984269527503957 10.353875050581694
O -4.04754894951733 4.784581654989719 -7.995769967383261
H -3.645944546516179 5.5798607750399905 -8.376837391341486
H -3.317236620244384 4.356575900167078 -7.524158983784886
O -2.426196162151214 -2.8232869295222933 4.982356997077697
H -1.5799827626970588 -3.1380259165831 5.334251312900191
H -2.4583688189971116 -3.190925051158657 4.086383182744287
O -1.6833003183158635 4.683444269914943 -3.8026360977971208
H -1.5058547891055978 4.769569474070855 -4.751352541352514
H -2.6165266146281154 4.425841860123932 -3.7615067574039065
O 9.390507421386294 -3.287501927744084 -3.541858212004766
H 9.17323622986023 -3.8900531082495293 -2.814745661498079
H 8.684858482678338 -2.623960191746917 -3.514767915029669
O 8.437722695494692 -2.6120180244371642 2.5279205625560297
H 7.928580644267046 -2.8038515205288497 3.3297569787588275
H 9.240528840306448 -3.1455062245777277 2.6271907920474025
O 2.817292927366536 1.8663843794561517 -2.0859613434042856
H 2.8762978404930646 2.6515182368166577 -2.650806988827125
H 3.6391077478230494 1.3858046333961294 -2.266586515666938
O -3.1298787669971606 10.402867197199178 1.2215391102957298
H -2.5611265083765713 10.75681250975721 1.92168976617786
H -3.951464008196818 10.173186872963765 1.6811112856958652
O -3.286595341290498 -6.4760624257282124 -7.944795235707668
H -3.5449233994121863 -5.735621390905737 -8.513988564233312
H -2.3187673120179646 -6.431577005169436 -7.92771023023066
O -3.934502498872143 4.399345091383852 5.417153404073346
H -4.23785812007214 5.289324457131407 5.65141704301449
H -3.874536052648242 4.419464253943993 4.450219492719963
O -0.524437496962828 -8.937546669919547 1.4523600281727045
H -0.8800196864339016 -9.066158316046966 2.344541460344073
H -1.3104200935775467 -8.782494092049333 0.9072435266662982
O -3.767839002917605 -8.284288181872677 -5.455258324261282
H -3.8019189090265537 -8.402209482438783 -6.416455746111967
H -4.236924107816895 -7.449808392474584 -5.305043179393207
O 6.951379784886706 2.6527529901209954 -2.2654386204405754
H 6.432081080255757 2.336889652732327 -1.5107687824568967
H 6.9037865035322 1.9249085946500615 -2.903356608783483
O 6.784870373563902 -3.9442168085861082 -4.173696914101383
H 6.329763949106631 -3.2796246845504218 -4.712364537026183
H 6.675685328719087 -3.624217624483908 -3.2655994014651233
O -0.9512986225935545 3.3322655294275947 7.979267438515351
H -0.3896493594357262 2.9654734556853746 8.678539228833072
H -0.6826880226136254 4.261810069149075 7.926758024574565
O -5.689482772073085 0.6324794484655946 -2.1839506290657424
H -6.4314741070893175 1.254591052858934 -2.221278465059501
H -5.3884812498534025 0.571768421256434 -3.1030122151940285
O -10.6954729000216 1.4488357331455726 -4.138431983240577
H -11.141276714226667 2.259163573383489 -4.427560168438023
H -9.759562342501546 1.6971239215855185 -4.1011982874300354
O 1.20992835140532 8.32934908043123 5.929269946412416
H 1.621305642481618 8.135019850333864 5.073716189120395
H 1.5858722912227237 7.664908771499648 6.526050621603455
O 2.9744070713910946 -0.7078735007727146 8.315416355413213
H 2.8087694714329636 -0.2579263217512855 7.473348021801996
H 3.3781804151900894 -0.024076851463583626 8.870710127691439
C 6.539217426194501 -19.49604093044949 2.478512354456277
O 5.729386330054357 -18.880542389287907 3.1095063313311897
O 7.349048522334645 -20.11153947161107 1.8475183775813644
O -6.666583002621141 -16.691586930414484 4.282728292831986
H -7.051344186175171 -15.878051551529996 3.923442367929029
H -6.796554714589906 -17.343296575598444 3.5775022037214734
O 18.872318934406305 9.178230231880443 -9.124388892703427
H 18.484989818315345 9.142638508093595 -8.236877348031427
H 18.5051578603429 9.988943129343074 -9.507663321644827
O 8.694927990606589 -11.436429932050842 -11.649133406857727
H 8.779600353634095 -11.83147199261728 -12.529894281455803
H 8.54814804893297 -12.1956664661159 -11.065200638156426
O -6.8299918882614765 -17.008302852034486 10.219425769079972
H -7.744469231008152 -17.00866392248584 10.539891705071788
H -6.317439831278988 -16.682956092649473 10.974675277084241
O -5.1567827708945 -9.447074298433728 -2.8306907526237572
H -4.921366670666303 -8.83623180977958 -3.545126243559193
H -6.111666281478161 -9.323214180229535 -2.721979683114407
O 14.786252038203676 3.528743274173378 -3.4794146611661847
H 14.938277796898662 3.709940606843034 -4.419107723940736
H 15.420097750077847 4.103556857409543 -3.0246719840773433
O -10.478202782183462 -3.085603882552739 -12.321780172472213
H -11.321028290197425 -3.4198230311896625 -12.663701333890188
H -10.185542074237325 -3.774555179620827 -11.706428431926478
O 20.96170866094988 -12.688423926506635 -5.113046687122103
H 21.565907439949946 -12.883058621318465 -4.380906995580702
H 20.360604605477256 -12.021068372811545 -4.749353927025499
O -9.780919815185188 11.954466414648024 -13.781238156516077
H -9.020698569445823 12.425548511853123 -13.408260044397776
H -9.801246923898981 11.118363343985866 -13.291870801474232
O 10.392052607281949 -8.877290847866592 15.89813305474932
H 11.167588934564115 -8.452835192143521 16.29480440270678
H 10.20874675282011 -8.341721700191755 15.11166843629604
O 6.202193391436798 13.924034229952696 -4.848700793164538
H 5.709385658085635 13.538849969256866 -4.108605542428866
H 5.553440321759146 13.961787517840907 -5.567488723041948
O 4.685565455274541 -7.564236364201252 -15.087133461136494
H 5.471688126684854 -7.839159816263508 -15.582507661010577
H 4.661438610677315 -6.602303320356022 -15.201434199666174
O 20.733538907029015 0.2546989801364745 5.53557684168591
H 20.221201071635342 0.19241601443952128 6.355697644682712
H 21.629905076866812 -0.0018694724697727594 5.7995129381137245
O -0.6265939623340007 23.185996052765056 -1.1403063320182358
H -0.7161838244455856 22.59018420912598 -0.38139312190377694
H -0.5491148783519462 22.588419160301914 -1.899161254542559
O -0.52465478298907 20.17785411931611 -7.509791740227933
H -0.11615095411733023 20.83152659446194 -6.922591370733967
H -0.43977348025435425 19.34283418342951 -7.025540962822261
O 7.401580109479504 -13.822668995476091 -3.693502205374432
H 7.278968005135212 -13.867512899034594 -4.653670239148678
H 7.29032251926335 -14.73950830072279 -3.400262744738518
O 19.06684211112702 8.819689354547497 1.141623003423657
H 19.282394260317318 8.081896311429858 0.551567028615624
H 18.245710988565413 8.54121004692701 1.574237033579795
O 21.202622705251585 6.291078753539599 -1.975126161073527
H 20.850452184177932 6.233901134236539 -2.876055681534227
H 20.51479027652658 5.882274373659075 -1.4285664906945668
O -14.351196632872625 -3.021964581658903 0.7566836118675937
H -14.853114833046703 -3.0159884233152114 -0.07217690882661021
H -14.403083267182142 -2.1059189596838497 1.0683406989687354
O 7.148496953285631 8.810882612597133 -9.330735789808365
H 6.705103132234202 8.813488068644327 -10.192340390511147
H 7.037196754593649 9.717570300945498 -9.007484114068506