194

C -5.0710522388059704 1.0783507462686561 0.47044029850746183
C -3.8153522388059704 0.1782507462686569 0.19534029850746193
C -4.11845223880597 -1.3219492537313435 0.5608402985074619
C -2.96945223880597 -2.3874492537313436 0.7034402985074619
C -2.52015223880597 0.7359507462686565 0.7384402985074618
C -2.20305223880597 0.7852507462686571 2.097440298507462
C -1.5755522388059702 1.205650746268656 -0.18965970149253808
C -0.9533522388059701 1.2695507462686564 2.508640298507462
H -2.91125223880597 0.4298507462686567 2.840840298507462
C -0.32655223880597006 1.6562507462686575 0.21554029850746192
H -1.7850522388059702 1.178550746268657 -1.2573597014925382
C 0.004447761194029898 1.6956507462686563 1.569740298507462
H -0.7158522388059702 1.2676507462686573 3.5705402985074617
H 0.3943477611940298 1.9193507462686572 -0.5551597014925382
C -1.76045223880597 -2.1592492537313435 -0.1734597014925381
C -0.5287522388059701 -1.936549253731343 0.464840298507462
C -1.8068522388059702 -2.121249253731343 -1.5681597014925381
C 0.6114477611940299 -1.614449253731343 -0.2582597014925381
H -0.4544522388059702 -1.954049253731343 1.5506402985074619
C -0.6479522388059701 -1.8270492537313432 -2.2998597014925384
H -2.74345223880597 -2.290549253731343 -2.092259701492538
C 0.5698477611940298 -1.5506492537313434 -1.6506597014925382
H 1.5072477611940298 -1.351949253731343 0.2991402985074618
H -0.7173522388059701 -1.7640492537313435 -3.3840597014925375
C 1.7791477611940298 -1.082849253731343 -2.4255597014925376
H 1.4739477611940297 -0.9102492537313429 -3.464259701492538
H 2.1252477611940295 -0.1337492537313434 -2.0010597014925384
C 1.3965477611940298 2.0964507462686566 1.997440298507462
H 1.51704776119403 1.8448507462686567 3.057640298507462
H 2.1256477611940294 1.5207507462686571 1.4165402985074618
C 3.94864776119403 -1.4275492537313434 -3.522959701492538
H 4.81734776119403 -2.087049253731343 -3.615159701492538
H 3.4305477611940303 -1.3641492537313429 -4.484459701492538
H 4.26984776119403 -0.441449253731343 -3.176459701492538
C 2.60904776119403 -3.4296492537313434 -2.8992597014925376
H 1.9825477611940296 -3.869549253731343 -2.119359701492538
H 2.06294776119403 -3.373349253731343 -3.845759701492538
H 3.5215477611940305 -4.019849253731343 -3.0234597014925377
C 3.7281477611940304 -2.060049253731343 -1.156659701492538
H 3.9048477611940298 -1.032549253731343 -0.8295597014925382
H 3.12924776119403 -2.623249253731343 -0.4404597014925382
H 4.68244776119403 -2.5769492537313434 -1.3005597014925383
C 3.1110477611940297 3.755250746268656 2.588740298507462
H 3.40124776119403 4.809350746268656 2.534540298507462
H 2.9823477611940303 3.461750746268656 3.634840298507462
H 3.86514776119403 3.1392507462686563 2.091540298507462
C 1.99744776119403 3.9574507462686572 0.40494029850746194
H 2.67914776119403 3.230350746268657 -0.04295970149253803
H 1.03214776119403 3.981150746268657 -0.10175970149253821
H 2.4399477611940297 4.958250746268657 0.368240298507462
C 0.7418477611940297 4.4992507462686575 2.475440298507462
H -0.18475223880597014 4.424250746268656 1.901240298507462
H 0.57844776119403 4.189650746268656 3.511940298507462
H 1.1210477611940297 5.524350746268658 2.4432402985074617
N 3.00114776119403 -2.025349253731343 -2.490159701492538
N 1.7831477611940298 3.586450746268657 1.862540298507462
C -3.55075223880597 -3.8435492537313434 0.6444402985074619
H -2.62515223880597 -2.2736492537313433 1.7424402985074618
H -4.67195223880597 -1.3478492537313436 1.5102402985074619
H -4.83415223880597 -1.6757492537313432 -0.1945597014925382
H -3.7169522388059697 0.17335074626865676 -0.900559701492538
H -3.9132522388059705 -4.043149253731343 -0.34225970149253815
H -4.35435223880597 -3.9354492537313432 1.3449402985074619
H -2.78115223880597 -4.545049253731343 0.8904402985074619
H -5.24235223880597 1.138950746268657 1.5249402985074618
H -5.92805223880597 0.6501507462686567 -0.006059701492538094
H -4.89895223880597 2.059650746268657 0.08004029850746197
C -3.2772510400158215 -0.7024240497121541 -3.9890178305921924
O -2.6140185916670875 -1.179561994683049 -4.896893152167955
O -2.8806974949760007 0.1549624966785612 -3.1913555837204024
O -4.4476356232604495 -1.0031226436373584 -3.7274290936123626
O 3.720750449000576 9.8343417864648 -2.7558258060392955
H 3.1998438644266938 9.491439053286825 -2.0141780442098343
H 3.620550840222824 9.159555398342796 -3.444001156590336
O 3.5635866233790865 2.8686141398218448 -2.2492639042878575
H 2.9094130401506835 2.172252197929395 -2.4108322359308145
H 4.1050305833876095 2.8721216140341164 -3.052873311957365
O -2.64336672304123 -7.156885984534119 6.951920611495918
H -2.0227703094543497 -7.447651715704268 7.636962754666828
H -2.2523407825676545 -6.336952916764062 6.614621897365646
O -1.397772796073626 -1.2996053055455614 9.181182317308892
H -1.1557028060137804 -2.1393076920673417 9.59983417611529
H -2.2880409227952683 -1.4594604305002723 8.833574857853185
O 0.9374942924979889 2.3079725387776504 8.002710709196794
H -0.01820568759971186 2.3180124671910836 8.16241075546701
H 1.0191235109236447 2.5092742837210675 7.058371669189471
O 0.39687794854321345 4.3640716418508765 -5.765345154345132
H -0.11543985677328861 3.573621088556717 -5.992690147808021
H -0.06198922631208248 4.726119950078281 -4.992477841897522
O 0.9975503321144825 -6.536954437008751 6.529074322343177
H 1.0134295313572301 -6.195438072872952 7.4357615787656295
H 0.07753115249821807 -6.811698825978502 6.398528643870652
O 4.9046074242040945 11.08165478212048 0.29042174102408724
H 4.515048883655892 10.518932344641486 -0.39554834487154067
H 5.199216567350488 10.454739485426249 0.9680238424415257
O -0.04939331063464536 -2.912820271248574 6.534688708595514
H 0.17191345739598862 -3.5352706379763807 5.825783769774902
H -0.07949892537348546 -3.465212926134863 7.330250114829422
O -2.373647328725722 -5.064819890541213 -2.744069238410197
H -3.0492388178967325 -4.7643045726901025 -3.3703551478769063
H -1.6391598804000853 -5.346993256948306 -3.3096382650042844
O 4.406248336991609 -9.29480689113554 -2.7871775327803805
H 4.250471529868236 -10.03074302216596 -3.3979957989663414
H 5.140435151098132 -9.601198918114152 -2.2339546192129385
O 2.045721029773476 6.687219858778459 -8.48701248056971
H 2.036115993465965 6.633358471200474 -9.454469999588351
H 1.791929031747204 7.603725587227094 -8.301085570847988
O -1.531132920431026 4.7665750912126805 -8.154936257452556
H -2.1564279056904443 4.91248206133634 -8.880666713185782
H -0.9078451705816408 4.115320773220895 -8.51038265071706
O 8.342984950610976 -0.35811749137227755 -1.2615752558725073
H 8.36270675454416 -1.2909233976357377 -1.5232077244035112
H 8.654724866630406 -0.3657126372537316 -0.34412090669799067
O -0.39065160788001596 -5.4942856749582205 2.354509374198246
H -0.22899699332666873 -5.449572385466274 3.308886586958703
H -0.0344023928485081 -6.357840649797845 2.0969802563898523
O 5.716292502259638 -1.7052153577071807 -6.555549717282367
H 6.4133940620276055 -2.3534616153598584 -6.374459790151209
H 5.355744838858127 -1.9821184154194522 -7.411290345828952
O 3.7511685232450107 -7.734861319487108 -0.7694499519109588
H 3.384499796387879 -7.217214520315485 -0.03694521270967177
H 3.1320156534668255 -8.473876128599546 -0.8667576086392205
O 8.060603744329509 2.1712703105122686 4.636100085082304
H 7.280940560685708 1.6005175720267348 4.5630659253919506
H 8.807281068263393 1.5578710675518361 4.56415366780873
O -4.337416443537578 -9.483149007682481 0.9763819147231079
H -3.9246893969791503 -9.715303122215962 1.8217979123505095
H -3.92129886784764 -8.641699311351054 0.7360269354826658
O 3.118592805881328 -5.3305304414752115 7.981892148706916
H 3.427654197226568 -4.861519197896233 7.19228663538001
H 3.56689391875568 -4.879066107026374 8.712760133514216
C -1.2698614160470485 11.410621693750416 -9.283596530771218
O -1.564119541489406 12.548350907760609 -9.05599457889273
O -0.975603290604691 10.272892479740223 -9.511198482649707
O 4.3872646228392185 4.709107878468316 -14.800150346131923
H 3.618735182754244 5.2268119158729345 -15.083544746707576
H 5.144144708457651 5.204203656826016 -15.147964449564514
O 5.6901362676441 0.5095177487480755 12.767411865213576
H 5.644992039399082 0.5034883699169841 13.735344198668283
H 4.785236345524605 0.30230172299632496 12.489599709396414
O 0.9071667527457503 19.073371030494332 -8.050551792628257
H 0.7323878391922953 18.775594856244496 -7.145151859821651
H 1.8291697850059059 18.81936538311412 -8.206607820714455
O 7.504297837465576 -0.24770489545252755 -15.18183457517644
H 7.573773757548888 0.17800704238742932 -16.04953832612438
H 8.405364259365843 -0.20601848582322435 -14.827852243871517
O -11.816645986864037 1.5638382758850695 -16.09866720005059
H -11.522215685194809 1.7980855025384068 -16.991643342600987
H -11.844435507737057 2.4122208421427516 -15.631295069837758
O -16.674361839558877 -6.916229123385748 11.067014507366986
H -16.58142619689696 -6.856744833691694 10.104314168475067
H -15.9448164039458 -6.376279235801445 11.406395591951592
O -7.579529987946078 3.732938439906476 2.1004857967477855
H -7.35187516609342 2.8822619011128534 1.6961467492476223
H -8.532369511144337 3.6668951698153256 2.263878188880905
O 13.865624411100352 -16.73498154668146 -0.2922963208346516
H 13.430131352221654 -17.03852469057538 0.5183668104125196
H 14.350999205224936 -17.513974862790025 -0.6030094795304191
O -10.809992627579447 -8.374902056602018 -0.6321179351822388
H -11.069228074841433 -8.707876399577842 -1.504409415538834
H -11.280814179268388 -8.95173586563208 -0.011995554095176164
O -1.9695032264014962 -18.922616232374185 17.17781971361502
H -1.9237342490420506 -18.903043258997144 18.145543566955762
H -2.384563922719142 -19.77566186702493 16.980336276649734
O -1.361825649486172 15.92752438635857 5.800121490595328
H -0.6891045237769223 15.898839931383371 5.103278003169883
H -1.0042109944342306 15.353942165072658 6.494439240776613
O 10.36235268078739 -9.96596524301992 7.872359356881204
H 10.00379873483924 -9.066655127015078 7.912951720650417
H 10.88620007791599 -10.04592279115254 8.6836254287209
O 7.634088182451531 -7.605306675661911 14.46992741775153
H 7.189201052823958 -7.584261652621416 13.609346273525741
H 7.217908620991945 -6.884596337428792 14.966246997545845
O -7.1588307227682755 -2.505920284041486 -9.787536514844934
H -7.649538675746738 -2.4314179002005054 -10.619775937478652
H -6.4209849226205815 -3.095978714818168 -10.002888709572009
O -5.753102637655745 9.640836068206456 -2.5633912622173765
H -5.907017681180328 8.744223850750922 -2.2296787395480946
H -6.628413251166274 10.055400062169012 -2.5328958677185773
O 13.13945982203151 1.4592651234611242 -6.822813620590416
H 13.144723614129148 1.49246620197896 -7.791233641954084
H 13.293727471740988 2.3780262236360263 -6.556277549188223
O 3.3729139222773 19.056833477989805 5.4485209872392035
H 4.224217743297057 19.23442762204778 5.021075691074326
H 3.593872392290722 18.984748016064376 6.389235069736285
O 14.571615119678597 -1.6567356338334038 5.440892511973732
H 13.96418429042804 -1.4382603756264607 4.71821436360657
H 14.088774040309795 -2.3164065547013553 5.961143136706848
O -4.586996039709271 13.86052123072604 2.447893658010617
H -4.05245275370322 13.065798045189256 2.5950190829246087
H -5.0122959525964665 13.701372587474738 1.591883355648892
O -7.72073590338693 -2.837149366676153 -7.312078049225511
H -7.498520427550195 -2.0060586273654932 -7.758033004608581
H -8.688077065669328 -2.8743503781031574 -7.354846084052338