194

C -5.0710522388059704 1.0783507462686561 0.47044029850746183
C -3.8153522388059704 0.1782507462686569 0.19534029850746193
C -4.11845223880597 -1.3219492537313435 0.5608402985074619
C -2.96945223880597 -2.3874492537313436 0.7034402985074619
C -2.52015223880597 0.7359507462686565 0.7384402985074618
C -2.20305223880597 0.7852507462686571 2.097440298507462
C -1.5755522388059702 1.205650746268656 -0.18965970149253808
C -0.9533522388059701 1.2695507462686564 2.508640298507462
H -2.91125223880597 0.4298507462686567 2.840840298507462
C -0.32655223880597006 1.6562507462686575 0.21554029850746192
H -1.7850522388059702 1.178550746268657 -1.2573597014925382
C 0.004447761194029898 1.6956507462686563 1.569740298507462
H -0.7158522388059702 1.2676507462686573 3.5705402985074617
H 0.3943477611940298 1.9193507462686572 -0.5551597014925382
C -1.76045223880597 -2.1592492537313435 -0.1734597014925381
C -0.5287522388059701 -1.936549253731343 0.464840298507462
C -1.8068522388059702 -2.121249253731343 -1.5681597014925381
C 0.6114477611940299 -1.614449253731343 -0.2582597014925381
H -0.4544522388059702 -1.954049253731343 1.5506402985074619
C -0.6479522388059701 -1.8270492537313432 -2.2998597014925384
H -2.74345223880597 -2.290549253731343 -2.092259701492538
C 0.5698477611940298 -1.5506492537313434 -1.6506597014925382
H 1.5072477611940298 -1.351949253731343 0.2991402985074618
H -0.7173522388059701 -1.7640492537313435 -3.3840597014925375
C 1.7791477611940298 -1.082849253731343 -2.4255597014925376
H 1.4739477611940297 -0.9102492537313429 -3.464259701492538
H 2.1252477611940295 -0.1337492537313434 -2.0010597014925384
C 1.3965477611940298 2.0964507462686566 1.997440298507462
H 1.51704776119403 1.8448507462686567 3.057640298507462
H 2.1256477611940294 1.5207507462686571 1.4165402985074618
C 3.94864776119403 -1.4275492537313434 -3.522959701492538
H 4.81734776119403 -2.087049253731343 -3.615159701492538
H 3.4305477611940303 -1.3641492537313429 -4.484459701492538
H 4.26984776119403 -0.441449253731343 -3.176459701492538
C 2.60904776119403 -3.4296492537313434 -2.8992597014925376
H 1.9825477611940296 -3.869549253731343 -2.119359701492538
H 2.06294776119403 -3.373349253731343 -3.845759701492538
H 3.5215477611940305 -4.019849253731343 -3.0234597014925377
C 3.7281477611940304 -2.060049253731343 -1.156659701492538
H 3.9048477611940298 -1.032549253731343 -0.8295597014925382
H 3.12924776119403 -2.623249253731343 -0.4404597014925382
H 4.68244776119403 -2.5769492537313434 -1.3005597014925383
C 3.1110477611940297 3.755250746268656 2.588740298507462
H 3.40124776119403 4.809350746268656 2.534540298507462
H 2.9823477611940303 3.461750746268656 3.634840298507462
H 3.86514776119403 3.1392507462686563 2.091540298507462
C 1.99744776119403 3.9574507462686572 0.40494029850746194
H 2.67914776119403 3.230350746268657 -0.04295970149253803
H 1.03214776119403 3.981150746268657 -0.10175970149253821
H 2.4399477611940297 4.958250746268657 0.368240298507462
C 0.7418477611940297 4.4992507462686575 2.475440298507462
H -0.18475223880597014 4.424250746268656 1.901240298507462
H 0.57844776119403 4.189650746268656 3.511940298507462
H 1.1210477611940297 5.524350746268658 2.4432402985074617
N 3.00114776119403 -2.025349253731343 -2.490159701492538
N 1.7831477611940298 3.586450746268657 1.862540298507462
C -3.55075223880597 -3.8435492537313434 0.6444402985074619
H -2.62515223880597 -2.2736492537313433 1.7424402985074618
H -4.67195223880597 -1.3478492537313436 1.5102402985074619
H -4.83415223880597 -1.6757492537313432 -0.1945597014925382
H -3.7169522388059697 0.17335074626865676 -0.900559701492538
H -3.9132522388059705 -4.043149253731343 -0.34225970149253815
H -4.35435223880597 -3.9354492537313432 1.3449402985074619
H -2.78115223880597 -4.545049253731343 0.8904402985074619
H -5.24235223880597 1.138950746268657 1.5249402985074618
H -5.92805223880597 0.6501507462686567 -0.006059701492538094
H -4.89895223880597 2.059650746268657 0.08004029850746197
C 1.360255947326503 2.818612812892247 -4.098806258710429
O 1.795040513602236 2.4832633085373814 -3.0078073634509663
O 1.1322533950494316 2.0516515812933767 -5.041364887910483
O 1.0809774543627704 3.9768533450117287 -4.429155736572113
O 5.595220735983652 -6.160222112240893 1.370856153451069
H 5.17700068244187 -6.558050155017389 0.5925296203711976
H 5.557641621444385 -6.859970416635882 2.0401110114437353
O 1.6907004522370754 4.212160149630147 9.231182860535851
H 2.09527734341725 3.716761950344296 8.50326423859565
H 0.9717403525714107 3.6375194801000865 9.534244603932773
O -8.823129453110306 -4.224754354909629 -2.6889407042502778
H -9.00392436774776 -4.5768298541252115 -3.5734311782483497
H -8.77780624332346 -3.2661910189574423 -2.8233433899482683
O -1.631911312244533 2.3787048179157315 -10.173843276174967
H -1.7744328128520475 3.3283366083084505 -10.3036679326933
H -2.5015457184075647 1.9862164611558217 -10.343108847764046
O 0.7287895271206535 -3.493338309682046 -6.6060602047850585
H 0.6860851340378065 -3.536059630938152 -7.573178905060035
H -0.196382729147772 -3.3956116678179202 -6.335010866100841
O -5.877709885431441 -5.912097317338944 1.8043364328730274
H -5.867273668088258 -5.956453702643586 2.7722677079903644
H -5.749563707821803 -6.831526236664248 1.526503814607382
O 6.936949810389832 1.0671519365624527 2.821967201983028
H 6.92763384001995 0.8087661771625804 1.888094957543019
H 7.3666764472948545 1.9356529409802954 2.8202446574998916
O 6.306410962131466 -6.279463313449508 5.627154350859255
H 6.71273961035314 -6.135687576349879 6.495021232331181
H 5.431463054881329 -6.640204150731261 5.835226819523098
O -1.3545338308000883 7.89359004431034 3.88135875653022
H -1.3885298743501004 7.021593277662408 4.302587037725225
H -2.1110947321716824 7.890712215315348 3.2759091179011457
O -7.6810894925241415 6.518165106929228 -2.614578231752999
H -7.449049169244038 7.4539388981939885 -2.517356542536846
H -8.395471855348863 6.5209564721231565 -3.2692628827608874
O -2.057773806287941 4.687383063993255 7.321363155646328
H -2.9801888816673556 4.391193575883126 7.301625558379916
H -1.758289358552589 4.581446784683849 6.40591325827852
O 2.2954968113454908 -5.128462566173873 5.642516954318089
H 1.9745962550790819 -5.525672197950604 4.818979038790393
H 1.6040867695797538 -4.492706806201169 5.880694854441153
O -6.954823282097195 -4.162792437201515 -4.396909944065392
H -6.633699471456136 -4.347004330244853 -3.501414085001401
H -6.549406314239093 -3.3115417636879325 -4.620452596182199
O 4.592153965313381 7.091168874199031 4.752537999822679
H 3.7218821255182624 6.6651000023212035 4.7448180143060625
H 5.137494957205854 6.499803157310769 5.292771038196829
O 1.0154448213285727 -0.055670797600479216 5.327572060558413
H 1.4700401579584046 -0.5385221879512969 4.6210559803092135
H 0.07585478044849253 -0.15764652918665162 5.113718256415412
O 0.5181952515249719 -4.503816874934248 0.09065716555014874
H 0.6602022571075338 -4.861501570844725 -0.7986476334793546
H -0.30880360733113094 -4.004823816831708 0.012934841111297737
O 4.145046949515695 -1.1308847722034816 3.1656579466128925
H 4.293172572129704 -1.7356312703745156 2.4231568827920484
H 4.139979266547681 -1.7104947485135114 3.942181312810731
O 4.516858347330685 -0.9911769228310756 -7.031991452955605
H 4.586063261838933 -1.957087661177762 -7.066552735548511
H 3.5622390844419276 -0.8248861051907783 -7.028619333407425
O 9.171259963167989 -5.905343637695133 3.013781460563556
H 8.953482884414907 -5.686911836562508 2.095180323440522
H 9.692409013352211 -5.146962188369835 3.3174641718122233
O 4.8824267480666945 3.4508902471787346 -7.592919752528275
H 4.86604023535959 3.5012317226206795 -8.560475732795892
H 4.142003286596737 4.011683982539327 -7.316794005113876
C -14.297752319956672 -9.02268823760825 -11.668992054333543
O -14.68410394788922 -10.151881817423948 -11.76103843501675
O -13.911400692024122 -7.893494657792551 -11.576945673650336
O -20.66168741533419 -0.9939062788546771 -3.237632099212621
H -21.252569250353737 -0.9408696550233007 -4.003799920565426
H -19.80043574826954 -0.7195558108508351 -3.586830224901229
O -0.5935098756023542 -5.435698318603576 11.871872134026313
H -0.3530138931630633 -6.072462251198288 12.56155375149707
H -1.4974550782861589 -5.685261633918842 11.627816471330718
O 13.06472866530979 -18.10255400018159 -14.074621429686369
H 13.252512136530594 -18.08743963451643 -15.025135122794891
H 12.360165338618575 -18.761828740618263 -13.98568729898297
O 3.1632636186299496 -2.056774378134693 6.337513228373721
H 3.252591291417438 -2.5757104259067765 7.150958556651574
H 3.255005253690335 -2.7126903945867165 5.630180494748199
O 14.333883273532507 12.72626393712431 2.7244953025050442
H 14.333739193157959 11.758279827745696 2.680064455885443
H 14.762954745172344 12.92164649869202 3.5710679639819327
O -6.345808996418246 15.881317115141703 0.0452366289161974
H -6.42794563351218 15.549259698717144 -0.8613828072003846
H -5.676318901023556 16.57873989199022 -0.020690806960758756
O 2.0286152426022133 7.357902531729074 -15.204938299152502
H 1.7521568936099432 6.575164540543172 -14.705078943606637
H 2.995968621120642 7.340253658176989 -15.15129221233041
O 8.525482439204628 -2.1406507678514286 -8.366285612637288
H 8.588661277693582 -1.9600242315155108 -9.31620658073857
H 7.662479983683727 -1.7779838815657005 -8.115962949546812
O -12.90318318835349 -13.142533231518154 -10.211939842632443
H -13.36430127534835 -12.351615196175572 -10.529408153044733
H -13.279443551336994 -13.861329000456106 -10.741772576714078
O 11.758017944333899 2.6168952580689293 -2.9795320738324276
H 12.723902191651328 2.6945335408551347 -2.9822292445822614
H 11.507402970456408 2.781463165079985 -3.9009828230048313
O 6.805678452221367 -8.760906657788398 -5.6754970550428245
H 7.643396836962166 -8.276007009519585 -5.63002623059406
H 6.28676503857244 -8.401080548340655 -4.940503188133094
O -4.74474555577819 14.710680842320272 -10.81645922886161
H -4.00127624939544 15.244621549591443 -11.134465625787072
H -4.386457067839654 14.246470913822215 -10.045031691114517
O 2.526321925903744 -19.239440613163392 -5.0097159502878155
H 2.7377361679013665 -19.758467067894525 -4.219220590105478
H 3.3908887507661003 -18.94956870730018 -5.3375275239679585
O 1.038531000355353 -8.617948500029495 5.574377259280603
H 1.70076645486912 -8.133510357125314 6.089868525340945
H 0.3800940906269801 -7.944291752277548 5.347200309711287
O -6.052563253155395 -0.47153717390636235 3.8008756329064264
H -6.482272019465421 0.08943714402407638 4.463918276843296
H -6.753069862087883 -1.0785381558682867 3.518382724961527
O -10.502071984138166 -3.0260152292646834 -0.09223532701499293
H -11.185673175405014 -2.8056520489695287 -0.7426942703532733
H -10.569066192475654 -2.318552499476104 0.5665288237319368
O -12.310130786501567 8.888571762591726 -5.089817631683323
H -13.001465388975666 8.856464981373666 -5.768045453968577
H -12.801747782596394 8.955158275857274 -4.257446975243637
O 8.832576761711868 -7.402344744490502 -0.36762052285712665
H 8.913321319499193 -7.287106886009921 -1.3263529721152811
H 8.136470513224577 -6.77754916463082 -0.11458195167725571
O 6.741979596803223 19.913930199899166 -7.1422055365606445
H 7.234189514494667 19.7361132718953 -6.3266824566043205
H 6.067853233941264 19.218236339675148 -7.165132464857107
O -19.45426773241803 8.586687694727564 -2.2174518961916276
H -20.294621836154995 8.104223275472272 -2.2181010380124846
H -19.087509329873168 8.419147924177162 -3.098576543302726