194

C -5.0710522388059704 1.0783507462686561 0.47044029850746183
C -3.8153522388059704 0.1782507462686569 0.19534029850746193
C -4.11845223880597 -1.3219492537313435 0.5608402985074619
C -2.96945223880597 -2.3874492537313436 0.7034402985074619
C -2.52015223880597 0.7359507462686565 0.7384402985074618
C -2.20305223880597 0.7852507462686571 2.097440298507462
C -1.5755522388059702 1.205650746268656 -0.18965970149253808
C -0.9533522388059701 1.2695507462686564 2.508640298507462
H -2.91125223880597 0.4298507462686567 2.840840298507462
C -0.32655223880597006 1.6562507462686575 0.21554029850746192
H -1.7850522388059702 1.178550746268657 -1.2573597014925382
C 0.004447761194029898 1.6956507462686563 1.569740298507462
H -0.7158522388059702 1.2676507462686573 3.5705402985074617
H 0.3943477611940298 1.9193507462686572 -0.5551597014925382
C -1.76045223880597 -2.1592492537313435 -0.1734597014925381
C -0.5287522388059701 -1.936549253731343 0.464840298507462
C -1.8068522388059702 -2.121249253731343 -1.5681597014925381
C 0.6114477611940299 -1.614449253731343 -0.2582597014925381
H -0.4544522388059702 -1.954049253731343 1.5506402985074619
C -0.6479522388059701 -1.8270492537313432 -2.2998597014925384
H -2.74345223880597 -2.290549253731343 -2.092259701492538
C 0.5698477611940298 -1.5506492537313434 -1.6506597014925382
H 1.5072477611940298 -1.351949253731343 0.2991402985074618
H -0.7173522388059701 -1.7640492537313435 -3.3840597014925375
C 1.7791477611940298 -1.082849253731343 -2.4255597014925376
H 1.4739477611940297 -0.9102492537313429 -3.464259701492538
H 2.1252477611940295 -0.1337492537313434 -2.0010597014925384
C 1.3965477611940298 2.0964507462686566 1.997440298507462
H 1.51704776119403 1.8448507462686567 3.057640298507462
H 2.1256477611940294 1.5207507462686571 1.4165402985074618
C 3.94864776119403 -1.4275492537313434 -3.522959701492538
H 4.81734776119403 -2.087049253731343 -3.615159701492538
H 3.4305477611940303 -1.3641492537313429 -4.484459701492538
H 4.26984776119403 -0.441449253731343 -3.176459701492538
C 2.60904776119403 -3.4296492537313434 -2.8992597014925376
H 1.9825477611940296 -3.869549253731343 -2.119359701492538
H 2.06294776119403 -3.373349253731343 -3.845759701492538
H 3.5215477611940305 -4.019849253731343 -3.0234597014925377
C 3.7281477611940304 -2.060049253731343 -1.156659701492538
H 3.9048477611940298 -1.032549253731343 -0.8295597014925382
H 3.12924776119403 -2.623249253731343 -0.4404597014925382
H 4.68244776119403 -2.5769492537313434 -1.3005597014925383
C 3.1110477611940297 3.755250746268656 2.588740298507462
H 3.40124776119403 4.809350746268656 2.534540298507462
H 2.9823477611940303 3.461750746268656 3.634840298507462
H 3.86514776119403 3.1392507462686563 2.091540298507462
C 1.99744776119403 3.9574507462686572 0.40494029850746194
H 2.67914776119403 3.230350746268657 -0.04295970149253803
H 1.03214776119403 3.981150746268657 -0.10175970149253821
H 2.4399477611940297 4.958250746268657 0.368240298507462
C 0.7418477611940297 4.4992507462686575 2.475440298507462
H -0.18475223880597014 4.424250746268656 1.901240298507462
H 0.57844776119403 4.189650746268656 3.511940298507462
H 1.1210477611940297 5.524350746268658 2.4432402985074617
N 3.00114776119403 -2.025349253731343 -2.490159701492538
N 1.7831477611940298 3.586450746268657 1.862540298507462
C -3.55075223880597 -3.8435492537313434 0.6444402985074619
H -2.62515223880597 -2.2736492537313433 1.7424402985074618
H -4.67195223880597 -1.3478492537313436 1.5102402985074619
H -4.83415223880597 -1.6757492537313432 -0.1945597014925382
H -3.7169522388059697 0.17335074626865676 -0.900559701492538
H -3.9132522388059705 -4.043149253731343 -0.34225970149253815
H -4.35435223880597 -3.9354492537313432 1.3449402985074619
H -2.78115223880597 -4.545049253731343 0.8904402985074619
H -5.24235223880597 1.138950746268657 1.5249402985074618
H -5.92805223880597 0.6501507462686567 -0.006059701492538094
H -4.89895223880597 2.059650746268657 0.08004029850746197
C 3.196594368918934 -1.7998527662475574 2.306740479141082
O 2.421977655589644 -1.0255796163636206 2.847337866666896
O 2.8677159144397755 -2.7961547953454455 1.6526359820652472
O 4.42926033707109 -1.7069187978241454 2.3301129602370594
O -1.831965796796398 9.028149317773485 -2.109083378784595
H -1.9837599079881905 9.19018975694069 -1.1658608171471019
H -0.8761887519299472 9.14650768365889 -2.216057590776505
O -5.205746740172854 7.718954932280132 5.189013436796282
H -5.656707648415294 7.366576172180939 5.97095386008191
H -5.881147140340163 7.686735841050881 4.49492542082554
O 4.017530991736001 1.903515029631245 -5.41570679404389
H 3.2451408351828617 2.482471147672803 -5.330909292063772
H 4.022773682171775 1.3977108596116112 -4.589210212025705
O -3.0992453678896053 5.986790182446544 7.900244697325581
H -3.554505680932385 5.153558625722812 7.7067748620852115
H -3.529985792972908 6.629734182835039 7.3171086558537
O -5.089381928979773 1.5310024127467279 4.27477890380882
H -4.392257857328971 0.965460108074697 4.639672432459654
H -5.802537638310126 1.474668155011906 4.928382246789092
O -8.29949618118976 0.6737293677052043 -2.1168742745266096
H -9.088360562902217 0.9017583475063362 -1.6024200700182978
H -8.26064662788243 -0.2933332422181927 -2.069518546299
O -0.3091572330283947 6.40000281968567 -10.098859202731408
H 0.3622558332566279 6.375204424745777 -9.400606461290206
H -1.099166410253917 6.0298232714436075 -9.677178581570374
O 6.595366276631966 0.09718961417510075 -7.249370731721484
H 6.367929838090895 0.258951378807617 -6.321430456258278
H 5.748537539640365 -0.13058237491622715 -7.661636368769478
O -5.114407937527385 1.1055957994842367 -3.629140512577435
H -5.404761613761158 1.9430092994673958 -4.020804564595859
H -5.267444517430604 0.4539857126539111 -4.329815932620482
O 6.424990076682916 6.403838768022553 -3.4311576808722393
H 6.299377738918756 5.574945840355674 -2.945230307733769
H 7.225810772324912 6.249357640999383 -3.9544011606453946
O 3.6093703188405857 -0.7217517144665244 5.909156610502751
H 3.0437718730564174 -0.5656282367858565 6.68031885980145
H 2.983444973892233 -0.9145385573194829 5.195004917881306
O -1.3119588817093555 7.46000114221019 4.155640945458478
H -2.2568047649845924 7.245960677802155 4.1761420028417255
H -0.9463265324415138 6.978111755598823 4.91264659176516
O 1.565029631594712 -0.5551621945085625 -7.780907102645342
H 1.6339203464033618 0.28084689905405247 -7.295819253082226
H 0.6281718392508089 -0.6090903251946527 -8.022466987446627
O 0.1326087807306521 -5.969112561535757 -3.2394456761870436
H -0.34461675799469715 -5.502058613872711 -2.5372464508523356
H -0.19556571518238264 -5.562867268142219 -4.055673711804433
O 3.927702952013709 9.773851764234022 3.7740397491503352
H 3.338446518181925 9.471987700515957 3.0664930728642648
H 3.324079350893681 10.038923110599686 4.484207105346592
O 7.330005814101655 3.236040110625286 4.871526521632758
H 7.072323041747971 2.8638142739476846 4.014779842478539
H 6.5708022480552515 3.05160956941466 5.444725671205731
O -4.645230698572273 9.00840202562146 -6.244823150829173
H -4.381006771573589 9.203032121600575 -5.333081850327459
H -3.8114347692794084 9.022923028395702 -6.738316244066638
O -1.6013610754359362 3.8306741888095224 -4.440112924454919
H -1.6069674660050066 4.519639042324135 -5.121481661561617
H -2.523071284578696 3.534471731411137 -4.399169806679561
O -0.7983087669611648 -8.911265295152063 -3.2646743740618005
H -1.2268606722470872 -8.166505728768431 -2.816741555822423
H -1.3466261258483256 -9.674113163923499 -3.0272440740706545
O -1.223614483531323 -10.47623364463794 -5.109686980167464
H -0.5618723334749582 -9.768839127446315 -5.1353322679609015
H -1.9651968183528208 -10.12173151726242 -5.622859296906125
C 4.879934073449397 -10.573011680886475 -4.171051118678089
O 4.705233329717604 -10.530558869654897 -2.9876257233708507
O 5.054634817181191 -10.615464492118054 -5.354476513985328
O -8.365457752623977 13.99133806755039 -9.769648602613941
H -9.229161876980534 14.311752783020005 -10.070176392643415
H -7.984736114892551 14.7492598497223 -9.30106824560732
O -3.9677037221724443 -7.963178259109191 8.023060347316815
H -3.9808947245968147 -7.359622531007479 7.265093436805112
H -4.487793113313914 -7.502261848385823 8.698356602191655
O 5.079810726005999 7.3551611813555935 -8.319043923485356
H 4.456188841037577 6.7309971740148224 -7.918441385514432
H 5.696901488781392 7.562625046440009 -7.601325538962904
O 0.04124166643264271 -17.36858097844876 -8.670031837888228
H 0.8475657780933012 -16.952444296489972 -8.329974422466982
H 0.3646190454746199 -18.138449821800926 -9.161652605410858
O 4.883940631935413 -12.830195346066079 -8.34977860597667
H 4.772710952284441 -13.08756285599318 -7.422224143910606
H 4.054718552314743 -13.104057261135239 -8.769721862196157
O -3.87947096665314 -14.294430041576652 -4.150008789791183
H -3.920638428893862 -13.365392069598677 -4.422334043074301
H -2.949240149817453 -14.53444414767338 -4.2766018408792945
O 6.161091283467208 -8.306188722074081 13.246914656882115
H 5.625596465971756 -7.498962175391028 13.222461443071477
H 6.034978238500509 -8.643564093763093 14.146489724770799
O -15.65845766424849 2.656621579842138 -3.3733430760052516
H -15.26322176882055 2.344510785446138 -4.201197408534094
H -15.81272806283356 1.8449552833296305 -2.867022612735128
O 7.427102156739526 6.13916370815886 8.962509730413574
H 7.747018280123634 6.587916224330675 9.759530564600706
H 6.588300722154489 6.582341263470732 8.765107217496752
O -5.050189123525059 18.63500005994943 -10.18454257190564
H -5.026541471087554 18.830164507261568 -11.133393974359965
H -5.403128126839165 19.445457446716972 -9.787610803872928
O 7.6732069082780425 13.895208832878843 -13.000058155642392
H 8.004345710009959 14.581991725701615 -12.402024955047697
H 8.279232362943773 13.151944248802856 -12.861303513718077
O 15.548374517655594 5.259895537853617 0.7696667717678413
H 15.54708236882563 5.429241860952801 -0.18442311398935995
H 15.019586193497629 4.45350713975002 0.8649694681521678
O 13.864532644697105 2.319283732211804 -7.9473015753946585
H 13.807295499365251 2.3589409275537965 -8.913799673143366
H 14.549995464362276 1.6549978092116842 -7.780487668119065
O -8.445220266207624 -5.489256442854451 1.5370848522863154
H -7.506284266523619 -5.465535764253747 1.7754204870624113
H -8.737790983546944 -6.3668829185325615 1.8254181470068058
O 3.750086731786288 11.96700086808957 15.537369507433848
H 3.1725313281772456 12.24922914486145 14.812287227652876
H 4.644553314084541 12.114070998441463 15.194934324939467
O 13.15202064377353 -5.522167425952792 -3.494303658166904
H 13.944402844975768 -5.224202588253573 -3.0228009968671232
H 13.499149703713776 -5.9232654849305035 -4.305219009562666
O 7.665522526282036 -7.619622048581137 -9.434532087981363
H 7.1361030949622 -8.389013950630313 -9.692831378925288
H 8.577686069100292 -7.891525131759998 -9.616158982496126
O 12.879985852915054 15.714689723504117 -4.765498519498939
H 12.824959931319576 14.759093227831634 -4.916411879779076
H 13.054598062052547 15.791946998406404 -3.815496501503822
O -11.607961041870333 0.24983164979221906 -12.678454272787373
H -12.079241216467718 -0.31504233977856133 -13.309152084610002
H -12.149973571480446 0.2079365758537377 -11.876313907997439
O 16.769241223604798 -4.878549361598568 6.619015767290791
H 16.709990071247528 -4.876298622931106 7.586203232066771
H 16.31500330196402 -5.6939066571860355 6.358588550249728