194

C -5.0710522388059704 1.0783507462686561 0.47044029850746183
C -3.8153522388059704 0.1782507462686569 0.19534029850746193
C -4.11845223880597 -1.3219492537313435 0.5608402985074619
C -2.96945223880597 -2.3874492537313436 0.7034402985074619
C -2.52015223880597 0.7359507462686565 0.7384402985074618
C -2.20305223880597 0.7852507462686571 2.097440298507462
C -1.5755522388059702 1.205650746268656 -0.18965970149253808
C -0.9533522388059701 1.2695507462686564 2.508640298507462
H -2.91125223880597 0.4298507462686567 2.840840298507462
C -0.32655223880597006 1.6562507462686575 0.21554029850746192
H -1.7850522388059702 1.178550746268657 -1.2573597014925382
C 0.004447761194029898 1.6956507462686563 1.569740298507462
H -0.7158522388059702 1.2676507462686573 3.5705402985074617
H 0.3943477611940298 1.9193507462686572 -0.5551597014925382
C -1.76045223880597 -2.1592492537313435 -0.1734597014925381
C -0.5287522388059701 -1.936549253731343 0.464840298507462
C -1.8068522388059702 -2.121249253731343 -1.5681597014925381
C 0.6114477611940299 -1.614449253731343 -0.2582597014925381
H -0.4544522388059702 -1.954049253731343 1.5506402985074619
C -0.6479522388059701 -1.8270492537313432 -2.2998597014925384
H -2.74345223880597 -2.290549253731343 -2.092259701492538
C 0.5698477611940298 -1.5506492537313434 -1.6506597014925382
H 1.5072477611940298 -1.351949253731343 0.2991402985074618
H -0.7173522388059701 -1.7640492537313435 -3.3840597014925375
C 1.7791477611940298 -1.082849253731343 -2.4255597014925376
H 1.4739477611940297 -0.9102492537313429 -3.464259701492538
H 2.1252477611940295 -0.1337492537313434 -2.0010597014925384
C 1.3965477611940298 2.0964507462686566 1.997440298507462
H 1.51704776119403 1.8448507462686567 3.057640298507462
H 2.1256477611940294 1.5207507462686571 1.4165402985074618
C 3.94864776119403 -1.4275492537313434 -3.522959701492538
H 4.81734776119403 -2.087049253731343 -3.615159701492538
H 3.4305477611940303 -1.3641492537313429 -4.484459701492538
H 4.26984776119403 -0.441449253731343 -3.176459701492538
C 2.60904776119403 -3.4296492537313434 -2.8992597014925376
H 1.9825477611940296 -3.869549253731343 -2.119359701492538
H 2.06294776119403 -3.373349253731343 -3.845759701492538
H 3.5215477611940305 -4.019849253731343 -3.0234597014925377
C 3.7281477611940304 -2.060049253731343 -1.156659701492538
H 3.9048477611940298 -1.032549253731343 -0.8295597014925382
H 3.12924776119403 -2.623249253731343 -0.4404597014925382
H 4.68244776119403 -2.5769492537313434 -1.3005597014925383
C 3.1110477611940297 3.755250746268656 2.588740298507462
H 3.40124776119403 4.809350746268656 2.534540298507462
H 2.9823477611940303 3.461750746268656 3.634840298507462
H 3.86514776119403 3.1392507462686563 2.091540298507462
C 1.99744776119403 3.9574507462686572 0.40494029850746194
H 2.67914776119403 3.230350746268657 -0.04295970149253803
H 1.03214776119403 3.981150746268657 -0.10175970149253821
H 2.4399477611940297 4.958250746268657 0.368240298507462
C 0.7418477611940297 4.4992507462686575 2.475440298507462
H -0.18475223880597014 4.424250746268656 1.901240298507462
H 0.57844776119403 4.189650746268656 3.511940298507462
H 1.1210477611940297 5.524350746268658 2.4432402985074617
N 3.00114776119403 -2.025349253731343 -2.490159701492538
N 1.7831477611940298 3.586450746268657 1.862540298507462
C -3.55075223880597 -3.8435492537313434 0.6444402985074619
H -2.62515223880597 -2.2736492537313433 1.7424402985074618
H -4.67195223880597 -1.3478492537313436 1.5102402985074619
H -4.83415223880597 -1.6757492537313432 -0.1945597014925382
H -3.7169522388059697 0.17335074626865676 -0.900559701492538
H -3.9132522388059705 -4.043149253731343 -0.34225970149253815
H -4.35435223880597 -3.9354492537313432 1.3449402985074619
H -2.78115223880597 -4.545049253731343 0.8904402985074619
H -5.24235223880597 1.138950746268657 1.5249402985074618
H -5.92805223880597 0.6501507462686567 -0.006059701492538094
H -4.89895223880597 2.059650746268657 0.08004029850746197
C 1.632553559024553 -2.25366846585061 3.8238507424621155
O 2.0295513016036106 -2.01188456541554 4.953323555980678
O 2.356473806616835 -2.471795540450869 2.8455913093094045
O 0.44542662486108553 -2.317639335490154 3.484313182800144
O 9.879345958291077 -2.3528624388064996 4.20845101319108
H 9.010724015797127 -2.1802493474106193 4.601729538662272
H 9.672600085371553 -2.760854701475915 3.3541908643297202
O 1.338081501003334 -7.086958965102645 6.216427323921811
H 1.9729212897036852 -6.497263289477269 5.782601541226007
H 1.3000771484911495 -7.859786409791086 5.63311321109197
O -1.1948205653947748 -7.662104171085208 0.46659222517398147
H -1.2611404652277813 -7.724353989779656 -0.4981325997676438
H -1.6925021959338933 -8.429962140667381 0.7854481134261272
O 2.5241471890534974 -7.252437413585549 -2.8333003158852814
H 2.013555761610906 -6.542195700481596 -3.2502181256383524
H 2.0747347019919373 -7.398236332890792 -1.9872902474448608
O 10.050980375880707 1.5924309178938363 5.106134422310854
H 9.502215371190193 2.117605639348738 4.504456901979751
H 10.235209942167252 2.1957589850973074 5.841672765655641
O -0.11352204852622558 0.38482607172550803 7.272029046673505
H -0.22739858781539501 0.37261930710734525 6.30981779876737
H -0.7846576004569321 -0.235019802584864 7.595030760809941
O 4.127189829330219 -0.28833458709335336 8.073495655241498
H 4.734388524411379 -0.07789324897548511 7.348242909777615
H 3.594876167091152 -1.0206463468045248 7.7280631786525715
O 5.3882831101978645 -5.838487682609083 -3.752749861238139
H 4.868504337562713 -6.09899298066167 -4.527949431738813
H 4.973758109748483 -6.3192930201181605 -3.020658886204831
O -4.660556309813721 4.643219139965322 -6.800205074208642
H -4.603499096846524 4.401911203455415 -7.736945332298229
H -5.435680349506784 5.222932918443331 -6.7546353207239305
O 4.06249843452932 9.398793213264529 2.196429850245746
H 4.472318232661323 9.59717359697833 3.051801297814936
H 4.619447713265048 8.697061621953836 1.8271843777314434
O 4.8798146510659 -9.821508055638867 2.9467756335087976
H 5.5389670906720605 -10.363417268934148 2.487624435310491
H 5.062415533759235 -8.920750687466215 2.6397658199485643
O -7.170522751913486 3.204199985773452 -1.1819577257407414
H -6.957751610926044 2.342174049539153 -1.5700390106828046
H -7.793743289358709 3.5969019766611936 -1.811515707470218
O 3.672884970720657 7.446854618492223 3.373884571164195
H 3.4155573926875573 7.595879700679317 4.296132585183607
H 3.1108086526714267 6.710290632433662 3.090149392820475
O 12.142867312888786 0.49174601650637495 2.2411167067940965
H 11.513771224217654 1.0844368975404284 1.8030265475143405
H 11.805106712319668 -0.39490204410871854 2.0443047721694874
O -2.060112331481118 -4.718299636424808 6.612102832879321
H -2.844692379679499 -5.286615750686262 6.632555195573858
H -1.595889382584361 -4.989113386407646 5.805803316050846
O -6.067600830490922 4.657043559167415 1.3564968115778777
H -6.065572219802865 4.353191705118942 2.2766257658174354
H -6.739525595388105 4.104903345714777 0.9291559180205918
O -2.912783739060205 5.814722395753724 -2.1331195855907716
H -2.8380551567502232 6.1694321402831145 -1.2344739418457873
H -2.373129956705596 6.416253210204937 -2.6678124121332862
O -4.681931530459407 -3.9033125164063796 -7.813706761838441
H -4.9973603418665 -3.2125897700538415 -7.211731588342459
H -5.2307200109444905 -4.671766393836752 -7.596286003286969
O 5.78112167114733 0.5234722065146111 -7.533914911189392
H 6.270238197980525 1.345714208374131 -7.687702005760697
H 6.046077041553639 0.2570845957512309 -6.640719391258491
O -1.6453350946280814 4.837372076124426 -9.970054595645967
H -1.0261782865800149 4.158977723601959 -9.661196527249897
H -2.3258874810077392 4.864374473788768 -9.280793205306043
C -12.228308274082199 13.360121348053577 -3.6021707787521593
O -11.85179845821392 13.34645502333527 -4.738336192511762
O -12.604818089950475 13.373787672771883 -2.4660053649925566
O 4.944119163944361 2.2055321156450503 4.165775469571962
H 4.614733748191586 1.34946805580489 4.478228554433281
H 5.549720208788941 1.9745469073069057 3.4454594609256617
O 5.206558834635002 0.5200834636824379 -15.742823013750298
H 6.161156126623201 0.6861218428432432 -15.730880498334834
H 4.9806879430193876 0.38562295721080453 -14.810157662823098
O -3.8586889507942392 10.625013955506919 -6.940061683895859
H -4.050787624255404 11.352788340667185 -6.329807719665342
H -4.327065981231662 9.868294466398298 -6.556707387634805
O 0.34581112429735494 -16.886579507213757 9.783907128349682
H -0.531467371977878 -16.76566227755398 9.390551283796086
H 0.8891579905639784 -17.20950396041337 9.049430495131194
O -2.138540276075168 -18.752962017418614 5.469393556648085
H -2.4773542140023856 -17.858530243717425 5.624842180186545
H -2.7359666685042434 -19.321296469251692 5.9783528878217815
O -4.85893672775137 -13.62045976552817 -13.003255020749544
H -4.187784807337668 -14.013784180162542 -12.425484857555281
H -5.622249595393533 -13.49050350618596 -12.420651569807411
O -6.539075026743017 12.388811996365641 6.42129633303461
H -7.406986682818303 12.216105865430182 6.816099203447119
H -6.5514064780148695 11.879608229377851 5.5969654508671525
O -3.945057658263286 5.873461391805529 7.664475378997519
H -4.013918024209069 5.852486449337259 6.698149523661821
H -3.000015053018517 5.743485199088076 7.834659420255373
O 8.09572736894496 -15.06115195563404 -3.2720561762181735
H 8.564014631792194 -14.246395502454288 -3.50837443272197
H 7.3900553134218026 -14.761973544556806 -2.6791977001051785
O -10.918743297293565 2.834252064075355 11.455998931930926
H -11.427377475725617 2.0168988416182794 11.345580006153739
H -10.090959487473365 2.6604838429000095 10.983198219358378
O -17.28840761862511 -4.234589586627774 4.722590870316838
H -17.159944292075586 -4.756670334848209 5.528752282795395
H -16.40125196176459 -3.9063005035305913 4.5124883650495615
O -2.671474054715599 -2.945075025374542 11.469975775324942
H -2.7860712701942685 -3.6862451253928854 12.083573133486901
H -1.7706179344153787 -2.6337623493882396 11.644631472592112
O 11.648209541580863 -12.272296239400225 0.965545254146762
H 11.622003930280314 -11.351208155100824 1.2653407908013747
H 12.374255783699262 -12.66345672218373 1.4742812124928673
O 5.497472477210132 11.047744745403227 13.91890814274035
H 5.765351937320592 11.361032725004064 13.041948284144443
H 4.538968996846979 11.189048718477489 13.935224074376304
O -11.563776604631663 8.249843333229649 11.388376549446553
H -11.48654223859849 8.518561004832831 12.316165869589668
H -12.460996499170802 7.889743051819407 11.322907530273822
O -7.716985155397559 13.817896750853931 -11.10419804897042
H -8.46219377282304 14.308853074933657 -10.726582687443738
H -7.562552473632959 14.24767943982269 -11.958832082557766
O -8.647484561567573 2.6964445150182605 2.5665792834411993
H -8.174658632310052 2.7474550543068954 3.410854666478775
H -9.351887476013196 3.356281143793917 2.6525682463753317
O 5.684479400228717 2.042476434614221 -12.386296276358484
H 5.99879187918058 1.2049447918707035 -12.013850616055558
H 5.745380970408878 1.9101206197670306 -13.344281078600005
O -9.137030200980815 -11.47034868288306 9.746050739458099
H -9.989189276342238 -11.830942059212068 10.033739258740345
H -8.495226009252374 -12.145810656703748 10.01213427089523
O -7.608847058149321 6.805200748026265 11.510294843084296
H -8.054310421749074 7.280058993819591 10.792632391096959
H -6.666267077203226 6.918405979460602 11.316157007010133