194

C -5.0710522388059704 1.0783507462686561 0.47044029850746183
C -3.8153522388059704 0.1782507462686569 0.19534029850746193
C -4.11845223880597 -1.3219492537313435 0.5608402985074619
C -2.96945223880597 -2.3874492537313436 0.7034402985074619
C -2.52015223880597 0.7359507462686565 0.7384402985074618
C -2.20305223880597 0.7852507462686571 2.097440298507462
C -1.5755522388059702 1.205650746268656 -0.18965970149253808
C -0.9533522388059701 1.2695507462686564 2.508640298507462
H -2.91125223880597 0.4298507462686567 2.840840298507462
C -0.32655223880597006 1.6562507462686575 0.21554029850746192
H -1.7850522388059702 1.178550746268657 -1.2573597014925382
C 0.004447761194029898 1.6956507462686563 1.569740298507462
H -0.7158522388059702 1.2676507462686573 3.5705402985074617
H 0.3943477611940298 1.9193507462686572 -0.5551597014925382
C -1.76045223880597 -2.1592492537313435 -0.1734597014925381
C -0.5287522388059701 -1.936549253731343 0.464840298507462
C -1.8068522388059702 -2.121249253731343 -1.5681597014925381
C 0.6114477611940299 -1.614449253731343 -0.2582597014925381
H -0.4544522388059702 -1.954049253731343 1.5506402985074619
C -0.6479522388059701 -1.8270492537313432 -2.2998597014925384
H -2.74345223880597 -2.290549253731343 -2.092259701492538
C 0.5698477611940298 -1.5506492537313434 -1.6506597014925382
H 1.5072477611940298 -1.351949253731343 0.2991402985074618
H -0.7173522388059701 -1.7640492537313435 -3.3840597014925375
C 1.7791477611940298 -1.082849253731343 -2.4255597014925376
H 1.4739477611940297 -0.9102492537313429 -3.464259701492538
H 2.1252477611940295 -0.1337492537313434 -2.0010597014925384
C 1.3965477611940298 2.0964507462686566 1.997440298507462
H 1.51704776119403 1.8448507462686567 3.057640298507462
H 2.1256477611940294 1.5207507462686571 1.4165402985074618
C 3.94864776119403 -1.4275492537313434 -3.522959701492538
H 4.81734776119403 -2.087049253731343 -3.615159701492538
H 3.4305477611940303 -1.3641492537313429 -4.484459701492538
H 4.26984776119403 -0.441449253731343 -3.176459701492538
C 2.60904776119403 -3.4296492537313434 -2.8992597014925376
H 1.9825477611940296 -3.869549253731343 -2.119359701492538
H 2.06294776119403 -3.373349253731343 -3.845759701492538
H 3.5215477611940305 -4.019849253731343 -3.0234597014925377
C 3.7281477611940304 -2.060049253731343 -1.156659701492538
H 3.9048477611940298 -1.032549253731343 -0.8295597014925382
H 3.12924776119403 -2.623249253731343 -0.4404597014925382
H 4.68244776119403 -2.5769492537313434 -1.3005597014925383
C 3.1110477611940297 3.755250746268656 2.588740298507462
H 3.40124776119403 4.809350746268656 2.534540298507462
H 2.9823477611940303 3.461750746268656 3.634840298507462
H 3.86514776119403 3.1392507462686563 2.091540298507462
C 1.99744776119403 3.9574507462686572 0.40494029850746194
H 2.67914776119403 3.230350746268657 -0.04295970149253803
H 1.03214776119403 3.981150746268657 -0.10175970149253821
H 2.4399477611940297 4.958250746268657 0.368240298507462
C 0.7418477611940297 4.4992507462686575 2.475440298507462
H -0.18475223880597014 4.424250746268656 1.901240298507462
H 0.57844776119403 4.189650746268656 3.511940298507462
H 1.1210477611940297 5.524350746268658 2.4432402985074617
N 3.00114776119403 -2.025349253731343 -2.490159701492538
N 1.7831477611940298 3.586450746268657 1.862540298507462
C -3.55075223880597 -3.8435492537313434 0.6444402985074619
H -2.62515223880597 -2.2736492537313433 1.7424402985074618
H -4.67195223880597 -1.3478492537313436 1.5102402985074619
H -4.83415223880597 -1.6757492537313432 -0.1945597014925382
H -3.7169522388059697 0.17335074626865676 -0.900559701492538
H -3.9132522388059705 -4.043149253731343 -0.34225970149253815
H -4.35435223880597 -3.9354492537313432 1.3449402985074619
H -2.78115223880597 -4.545049253731343 0.8904402985074619
H -5.24235223880597 1.138950746268657 1.5249402985074618
H -5.92805223880597 0.6501507462686567 -0.006059701492538094
H -4.89895223880597 2.059650746268657 0.08004029850746197
C 2.512667322027588 -1.4475411077048386 2.9477703180540726
O 2.9263214709202066 -2.500861376432062 2.4882247216304605
O 1.3266638738787038 -1.0993482729575739 2.9758600832652737
O 3.216057054921703 -0.5667789740186413 3.4558542992261656
O -5.7580877100470484 -0.9655014269054143 -5.035009871029038
H -6.650167838278007 -1.0394772049123007 -4.663946553004046
H -5.179726922669969 -0.9745569355417527 -4.257591874268028
O -0.40768576359877207 -6.103086227712685 3.415558855966874
H -1.1411328105576801 -5.622053048656862 3.0036973903565243
H -0.5128953095100401 -5.924531665420643 4.362137518326131
O -9.71127751824914 -3.8136885541556067 -2.465545252494026
H -10.057474006016736 -4.341561302979899 -3.20070898242503
H -8.835240609055742 -3.5336397859757964 -2.770658289698027
O -0.7290913679624209 -10.358260138847772 -0.15202244274378707
H -1.4393923917241382 -11.016920885701694 -0.1274087657146814
H -0.9847280875370767 -9.765238939760076 -0.8744749805188994
O -5.50391687964378 -3.779712889558796 -6.817962618782815
H -5.976100636997262 -3.177279023506979 -7.412170741602933
H -5.70544935013644 -3.441010376316917 -5.93273540774558
O -2.5817391043218203 -1.6392272590976336 10.138263263838203
H -3.0944340809119675 -1.2449993677163893 9.416670866749428
H -3.1756790299762794 -1.588609656727566 10.90222345085313
O 4.514640775180739 7.640400220721377 4.245557830044708
H 4.953077241242694 7.238846276619572 5.010734445018918
H 4.8381192552444405 8.553810209381048 4.243147466500068
O 4.57930244310135 -2.8341933141557836 -7.78510172546973
H 5.466682008172202 -2.9900971121860485 -8.141779269134037
H 4.714736327708649 -2.802488811179078 -6.826136433245253
O 5.566888058841233 8.420505727308868 0.20939305942147346
H 4.653907641012673 8.425142734944032 -0.11528002496000234
H 5.47434300955263 8.513095152068917 1.169510008847309
O -6.081865475439045 6.089815181061612 -2.4689150550701244
H -5.141994557970917 5.901817756544224 -2.326552897976149
H -6.453514400254814 5.235780524901512 -2.7362422460941254
O 4.359812301132483 -4.179784099269174 0.5513254323611798
H 3.840753523547013 -3.8496479053589896 1.3000279338809593
H 3.7105280396826306 -4.646649556544496 0.004124795540804804
O 3.8364719521790684 -8.82597874048811 4.387662291308779
H 4.519524905825438 -9.341739519225161 3.933353103055313
H 3.773045575066127 -8.011376291136717 3.8667382195890747
O 3.100715967522165 -2.845190056457401 6.879498929042734
H 2.7688083316008614 -2.239949548101765 7.559564076776791
H 2.8256389424811195 -3.7206088436046785 7.190845234150338
O 1.0840138552084546 6.050962070143295 -1.6925513692000755
H 1.0522869268259079 5.984578838504773 -0.726345373838509
H 2.0187957478099707 6.218526085861797 -1.8850794404016973
O -4.678330234618716 0.6830196472705263 7.866632604060814
H -4.6785636689178105 0.6477996262992574 8.834995579670277
H -5.097729774958692 -0.1494806781314444 7.602040128604258
O -2.7210132409885666 9.840839119329726 4.200501222451011
H -1.9680467754381494 9.601125946328724 3.639656811454248
H -2.3180324733557764 10.315163460061141 4.943188818286431
O 0.641255674476177 -2.3128435728401096 5.187838719945788
H 0.6709271220426024 -2.6252683079732524 4.271062985659425
H 1.5291499357778813 -2.5000660424599674 5.527770289407851
O 1.5590546824969005 -3.964133043645629 10.563070695868022
H 1.5808267011739687 -4.6803097318924225 9.91070248134912
H 0.6645198689976999 -4.011244683984565 10.932597291774902
O -5.933509421381325 -8.216804833566005 4.618489192738591
H -5.839361216379602 -7.75171994699514 3.7736226229902554
H -5.638054322926348 -7.569454672122296 5.276217098164355
O 0.8146194620260657 6.697259260717949 5.617985849940096
H 0.7841785568638496 6.852410621355229 6.574002985500598
H 1.3898221273374254 5.923047756922739 5.524709992882304
C 3.8426748888881272 -6.442119072967973 -10.379448518491284
O 4.774930533866643 -6.396761112979004 -9.630008510771297
O 2.9104192439096117 -6.487477032956942 -11.128888526211268
O 7.995481713773224 -10.606721784267542 14.385363509687203
H 7.39375241785931 -10.98222794081854 15.045578881919056
H 7.412902747022062 -10.102754798810311 13.797502157523022
O 18.409426379685875 0.4920635749538569 13.427226517755154
H 18.6785982607469 -0.3703290113921982 13.777644671339461
H 18.697242535399514 0.46903940882414386 12.50224344083739
O -4.096703003526078 16.294917578414378 -5.597958297173498
H -4.915695123435839 16.63122783479646 -5.204112291889786
H -4.382284411439631 15.912823518808208 -6.441409145396314
O -0.08614508115387842 -14.437492101712895 16.85363399946577
H -0.7976741869159714 -13.862968278624491 16.533296575399703
H 0.6583846540049265 -14.23751337194283 16.26656847892832
O 1.1034262993957988 11.801918954499587 0.5907093559466103
H 0.8463792528686027 11.47721199456496 1.466757050391187
H 0.932841248716662 12.75476042380347 0.6349340002031179
O -9.464374207153096 5.623321818624695 -13.831256778560139
H -9.650249061315694 5.549822153393479 -12.88309239687259
H -9.879819278117722 4.835501280576368 -14.212971511234219
O 15.366694604954755 -0.32848752313961693 7.109221078888119
H 15.439593924199858 -0.34266502976366287 6.143067858917536
H 14.48652799977067 -0.6946750690772916 7.282931679079556
O 9.9029006325681 5.790627925605618 -1.1317031878205177
H 10.011801016531638 5.717445372406676 -0.17162382798619696
H 9.984097291399479 4.877867320352337 -1.4467224322997778
O 8.583778873042048 -0.07580975150703839 -15.387276279129818
H 8.858966685918256 -0.6628901181199329 -14.66715429801684
H 8.257184204797262 -0.6804975700057243 -16.070394503987988
O -8.19614826310228 -12.473570408847806 -9.657100654686147
H -8.077548099475386 -12.60776487911987 -8.704791250009247
H -7.33541729997709 -12.143760928988533 -9.955981668490194
O -7.865658785975865 -7.727597639544918 0.824470375783712
H -7.762312880763647 -7.343793378990046 1.7082018227492466
H -7.358403378172156 -8.552144940476587 0.866608767781865
O -9.100555431690978 12.550488217056408 2.2689118900681287
H -8.407483621022678 12.570481817383884 1.591993078021285
H -8.802456846960041 11.868167322856877 2.8890226668009342
O -7.614358316761999 -1.5831981110020843 -16.970133450130987
H -8.106590301950893 -1.3200449620175467 -16.17803153128687
H -7.486467813226253 -2.537385712707942 -16.859988163549147
O 10.856378938178675 -1.3041131275463813 9.890347657415422
H 11.148959353632353 -1.57766924371991 10.77269175622099
H 10.2801723257038 -0.5437637096424459 10.060102323723521
O -3.967587396419926 8.985931848245237 17.903136332882372
H -3.8464205542435765 9.46173300956254 17.067732712979918
H -4.532102711226985 9.573613032014048 18.427459925611494
O 6.158133162233317 11.87621244372502 3.9855663040975413
H 6.053285088338899 12.47721119771029 4.738410734248143
H 5.565849516047397 12.240735156789615 3.310818041098119
O 1.0414254093975064 1.6715016601209074 -10.198409686491258
H 0.8522648768824821 0.9996847180707005 -10.870605823205048
H 0.1695602391931188 2.0296650675732772 -9.973616352856602
O 17.26634803726246 5.030210125959783 5.471787918781709
H 16.48908765096385 5.353431138794956 5.951748152189376
H 17.33193872503708 4.099225669643254 5.732417441426916
O -14.823597901728368 12.875291437932189 -4.0983590764469975
H -14.018073490508412 12.94279982721164 -3.5639992751841802
H -14.510590823214894 12.54136423028108 -4.9524557531123445
O -13.232104669124523 -6.756285798130294 -7.478251559642379
H -13.607984917937776 -7.5749349224833855 -7.8353159889097075
H -13.160981236917468 -6.926786515085575 -6.527024506195715