194

C -5.0710522388059704 1.0783507462686561 0.47044029850746183
C -3.8153522388059704 0.1782507462686569 0.19534029850746193
C -4.11845223880597 -1.3219492537313435 0.5608402985074619
C -2.96945223880597 -2.3874492537313436 0.7034402985074619
C -2.52015223880597 0.7359507462686565 0.7384402985074618
C -2.20305223880597 0.7852507462686571 2.097440298507462
C -1.5755522388059702 1.205650746268656 -0.18965970149253808
C -0.9533522388059701 1.2695507462686564 2.508640298507462
H -2.91125223880597 0.4298507462686567 2.840840298507462
C -0.32655223880597006 1.6562507462686575 0.21554029850746192
H -1.7850522388059702 1.178550746268657 -1.2573597014925382
C 0.004447761194029898 1.6956507462686563 1.569740298507462
H -0.7158522388059702 1.2676507462686573 3.5705402985074617
H 0.3943477611940298 1.9193507462686572 -0.5551597014925382
C -1.76045223880597 -2.1592492537313435 -0.1734597014925381
C -0.5287522388059701 -1.936549253731343 0.464840298507462
C -1.8068522388059702 -2.121249253731343 -1.5681597014925381
C 0.6114477611940299 -1.614449253731343 -0.2582597014925381
H -0.4544522388059702 -1.954049253731343 1.5506402985074619
C -0.6479522388059701 -1.8270492537313432 -2.2998597014925384
H -2.74345223880597 -2.290549253731343 -2.092259701492538
C 0.5698477611940298 -1.5506492537313434 -1.6506597014925382
H 1.5072477611940298 -1.351949253731343 0.2991402985074618
H -0.7173522388059701 -1.7640492537313435 -3.3840597014925375
C 1.7791477611940298 -1.082849253731343 -2.4255597014925376
H 1.4739477611940297 -0.9102492537313429 -3.464259701492538
H 2.1252477611940295 -0.1337492537313434 -2.0010597014925384
C 1.3965477611940298 2.0964507462686566 1.997440298507462
H 1.51704776119403 1.8448507462686567 3.057640298507462
H 2.1256477611940294 1.5207507462686571 1.4165402985074618
C 3.94864776119403 -1.4275492537313434 -3.522959701492538
H 4.81734776119403 -2.087049253731343 -3.615159701492538
H 3.4305477611940303 -1.3641492537313429 -4.484459701492538
H 4.26984776119403 -0.441449253731343 -3.176459701492538
C 2.60904776119403 -3.4296492537313434 -2.8992597014925376
H 1.9825477611940296 -3.869549253731343 -2.119359701492538
H 2.06294776119403 -3.373349253731343 -3.845759701492538
H 3.5215477611940305 -4.019849253731343 -3.0234597014925377
C 3.7281477611940304 -2.060049253731343 -1.156659701492538
H 3.9048477611940298 -1.032549253731343 -0.8295597014925382
H 3.12924776119403 -2.623249253731343 -0.4404597014925382
H 4.68244776119403 -2.5769492537313434 -1.3005597014925383
C 3.1110477611940297 3.755250746268656 2.588740298507462
H 3.40124776119403 4.809350746268656 2.534540298507462
H 2.9823477611940303 3.461750746268656 3.634840298507462
H 3.86514776119403 3.1392507462686563 2.091540298507462
C 1.99744776119403 3.9574507462686572 0.40494029850746194
H 2.67914776119403 3.230350746268657 -0.04295970149253803
H 1.03214776119403 3.981150746268657 -0.10175970149253821
H 2.4399477611940297 4.958250746268657 0.368240298507462
C 0.7418477611940297 4.4992507462686575 2.475440298507462
H -0.18475223880597014 4.424250746268656 1.901240298507462
H 0.57844776119403 4.189650746268656 3.511940298507462
H 1.1210477611940297 5.524350746268658 2.4432402985074617
N 3.00114776119403 -2.025349253731343 -2.490159701492538
N 1.7831477611940298 3.586450746268657 1.862540298507462
C -3.55075223880597 -3.8435492537313434 0.6444402985074619
H -2.62515223880597 -2.2736492537313433 1.7424402985074618
H -4.67195223880597 -1.3478492537313436 1.5102402985074619
H -4.83415223880597 -1.6757492537313432 -0.1945597014925382
H -3.7169522388059697 0.17335074626865676 -0.900559701492538
H -3.9132522388059705 -4.043149253731343 -0.34225970149253815
H -4.35435223880597 -3.9354492537313432 1.3449402985074619
H -2.78115223880597 -4.545049253731343 0.8904402985074619
H -5.24235223880597 1.138950746268657 1.5249402985074618
H -5.92805223880597 0.6501507462686567 -0.006059701492538094
H -4.89895223880597 2.059650746268657 0.08004029850746197
C 3.4454481752047306 -1.0554628090271692 3.033963135639607
O 3.3023826375724377 -0.5467237737413972 4.135095436736293
O 3.2725222434415078 -0.47812382695324085 1.9544225917035944
O 3.785298037339611 -2.2263804071442 2.82877435907825
O 0.00888613460541876 7.7344107422781265 -3.4747167255747544
H -0.34649037495136437 8.096025295266715 -2.648938420929917
H -0.7175727286686446 7.83831840256739 -4.107506313355532
O -2.9434019609736906 0.6158895736417016 -6.244172996684732
H -2.3417875974076234 -0.11588937410118938 -6.447954953911824
H -2.9055912728287243 1.1767114861865167 -7.033483505021963
O -1.0109869128824562 7.885907386544851 -6.674387485215071
H -1.061648694770628 7.882082322505884 -7.642057940298315
H -1.8885296373199854 7.586517172270158 -6.392880450341497
O -2.3973837359491643 -4.318487920582251 -9.009951800779481
H -2.7545769257464534 -4.596443449726949 -8.15314312558978
H -2.9797015601780616 -4.745672984004726 -9.65600196715517
O 1.3047207958275053 -2.7724675744165057 6.382590801839178
H 1.6951615358150414 -3.655155781608138 6.468526326174629
H 1.947681143476712 -2.283202256237754 5.847629696637821
O 2.8005760789835428 2.537121544664354 -8.459291501660736
H 3.1746934537119893 2.250034614812736 -9.305804727508194
H 1.877434903419073 2.2454363716813424 -8.500426330447517
O -9.751035882291058 -6.382820198991663 -0.9551912616124261
H -9.74651698701543 -5.988704229294166 -1.840414136890111
H -9.106905166410504 -5.854371596983222 -0.4604189501452933
O 3.798540362250847 5.593472739412563 6.8520599321015006
H 4.001436914785619 5.175404587921684 7.702365386969635
H 3.7799030139512584 4.853954700537582 6.226178422766978
O 0.539789033554 6.988490095478772 6.13044578052535
H 0.11518868784943481 7.51486505156422 6.824427991344622
H 1.4361137380346292 6.837751185345493 6.466365040779273
O -4.908591400171729 -4.566205990342177 5.5477296981048445
H -4.847181077890478 -4.218828885431014 4.645219157334903
H -4.986126080727907 -5.524270122556498 5.424996507094944
O 1.0096259890204442 -3.0242645620440127 -7.469737436552707
H 1.5499744716198258 -3.8039438859154355 -7.667451943304103
H 1.5073307019068232 -2.5640277703003664 -6.777325667013655
O 3.258009662849954 -7.657134944773251 4.867701951737917
H 3.2666252868864367 -8.033919193185286 5.760409495153475
H 2.6578094007008275 -6.899755237090835 4.939099206636268
O -3.8780444938399343 5.067599545549346 3.599592185195929
H -4.844878982304613 5.038721056276351 3.541588205396668
H -3.6088211682477853 4.144217935407165 3.4819182827861876
O 1.4630340721198247 -0.03570318299215092 -5.689518556361791
H 1.7201893034020341 0.09643777832709488 -6.6143846603281
H 1.6967693509566315 -0.9590343921687078 -5.511223178161353
O -6.866448249726711 -4.642680948912276 -2.1427008323787122
H -7.386931128601548 -3.908287486703143 -1.7839095666507885
H -5.981068255644954 -4.2667511527808974 -2.259922838676186
O 0.7821243006686904 -9.2438361585106 2.7253537023464105
H 1.0501694439142977 -9.462781588196947 3.6304404699559605
H 1.5912766592029355 -9.364272286816412 2.205998771709208
O 4.392001858601077 5.328804515169445 -4.927515289656528
H 4.177761292103609 6.250372408722787 -4.718276301562764
H 4.347470664450644 5.291963340257686 -5.894790661450237
O 2.3785029875472006 -9.894263165744317 -1.466991738854964
H 2.5618062052917416 -10.432462806580109 -2.2516626468595375
H 2.450578560837198 -10.52083871966666 -0.7313490733835879
O -0.19608424702881333 0.010320079225847156 -8.503653486238118
H -0.4425108014940582 0.8656554384964584 -8.12071389134644
H 0.7718974969799035 0.004331647692610678 -8.459637281794585
O -9.121270744259657 0.2893027808756521 -4.335856938853218
H -9.388139027816413 -0.14609838199020087 -5.159370450282469
H -9.874892265320877 0.15040716185868508 -3.742793237121889
C -13.47410099099589 -2.0102191006726176 5.514310623435585
O -12.671763085893696 -2.240080408685492 4.656268711630087
O -14.276438896098083 -1.7803577926597436 6.372352535241083
O -3.698935395431975 -0.6645855425774778 13.418018525363397
H -2.940961104286453 -0.780195539082917 14.010535748379283
H -4.4661071778815735 -0.7062998980065487 14.008500796955223
O 11.84829793499766 -3.8526364296103153 11.19765362630705
H 11.582978966808518 -3.0771457243637417 10.680751925695393
H 11.271238390088886 -3.8240151427615463 11.97556432032584
O 7.027861195160465 9.760747083303988 -3.698150197144722
H 6.716432778504657 9.527319558321286 -4.585557256379496
H 6.37156823479811 10.398768732799422 -3.380078083852882
O -0.20316541873510527 7.054237075347597 14.271150896618886
H -0.12132550439895795 7.35616911437018 15.188269552591558
H -0.30427458748440833 6.0936841198712965 14.349105370644219
O 16.85616421221273 -8.90499760671667 4.838382356249552
H 17.169513887368982 -9.738907806392874 4.457104089290282
H 15.910879484550088 -9.056651697134873 4.988047865994431
O -12.852895857958883 3.733858588636802 -1.898190257720331
H -12.209767473836521 4.350799525666247 -2.278633576301944
H -12.785827643884971 3.8850899802218852 -0.9434165331341462
O 0.9395594390222142 -3.091747628164865 11.596655673695713
H 1.4091726987674056 -2.3212651272964657 11.949908358083352
H 0.6274439976118367 -2.7975061659224156 10.727766810013692
O 4.776986757487789 -11.60956723073095 2.3888821061817778
H 4.9378629785342 -12.270831705136295 1.6990883012724776
H 5.657483902241152 -11.431158872184492 2.752003545898484
O 2.8163042166123358 5.567290019829458 14.376468871431655
H 3.437123345251796 4.951695331394253 14.794313514792925
H 2.4624910138360576 6.0818393659087135 15.117425774558013
O 1.730049865252683 11.919572089826648 3.6639059498222
H 1.9525670397464645 11.835925899261088 4.603297656598013
H 2.579285698378803 12.111068450554681 3.238359726877495
O -21.32640960694739 6.367286280405693 -6.3086181939236035
H -20.703488091306724 6.693070117054781 -6.9755522491570545
H -22.189186924184 6.425740405160845 -6.745837086997895
O -6.17191744560321 -18.031230216170158 7.3615675472534665
H -6.514734156433055 -17.461489366646287 6.65669917368318
H -6.95330489641152 -18.23850639825064 7.89582608051375
O -11.411086045065268 -12.199901633933031 20.55972000971283
H -11.496767315282097 -12.357968934559443 19.607543132600853
H -10.902346983890416 -11.37708308503775 20.615542474086908
O 0.8189403414507863 2.5793086959288036 6.969406587715699
H 0.0354723110408548 2.2968833431917415 6.474046998773554
H 0.5159283103872807 2.609463401476061 7.889317641603043
O 4.738612256350635 11.1500238977949 7.098101561629745
H 5.063066991117198 11.62184996604347 7.87981547560893
H 3.7762279511792505 11.144095089536329 7.210987533709652
O 10.598412003228573 5.379295582819058 -8.536439159614213
H 10.405161904049987 5.378515503013123 -7.586901826202324
H 10.680523070833482 4.439866068427053 -8.759355970030079
O 16.725480468733895 13.973874448717169 3.244525768860761
H 17.430500112263587 14.314307212040823 2.673543989122484
H 15.961112514830319 13.899532414543852 2.6536138995433216
O 0.6115108843156776 16.88627545601237 -9.540453543307853
H 0.3738665651285049 17.817561865009278 -9.417172730219539
H 1.5566567093807842 16.85591902453546 -9.328935693635572
O -3.575455239863306 14.104061325327715 0.8790973262994624
H -3.700468683809484 14.421235017034103 -0.027952752264040814
H -3.0586112216696506 14.805481142433816 1.3031780324489861
O -1.3802878372716858 12.877163625300946 11.396015411982845
H -1.2278070882102359 13.826665768138918 11.27700844238964
H -0.6451681177297486 12.590761347376604 11.958629558125944