194

C -5.0710522388059704 1.0783507462686561 0.47044029850746183
C -3.8153522388059704 0.1782507462686569 0.19534029850746193
C -4.11845223880597 -1.3219492537313435 0.5608402985074619
C -2.96945223880597 -2.3874492537313436 0.7034402985074619
C -2.52015223880597 0.7359507462686565 0.7384402985074618
C -2.20305223880597 0.7852507462686571 2.097440298507462
C -1.5755522388059702 1.205650746268656 -0.18965970149253808
C -0.9533522388059701 1.2695507462686564 2.508640298507462
H -2.91125223880597 0.4298507462686567 2.840840298507462
C -0.32655223880597006 1.6562507462686575 0.21554029850746192
H -1.7850522388059702 1.178550746268657 -1.2573597014925382
C 0.004447761194029898 1.6956507462686563 1.569740298507462
H -0.7158522388059702 1.2676507462686573 3.5705402985074617
H 0.3943477611940298 1.9193507462686572 -0.5551597014925382
C -1.76045223880597 -2.1592492537313435 -0.1734597014925381
C -0.5287522388059701 -1.936549253731343 0.464840298507462
C -1.8068522388059702 -2.121249253731343 -1.5681597014925381
C 0.6114477611940299 -1.614449253731343 -0.2582597014925381
H -0.4544522388059702 -1.954049253731343 1.5506402985074619
C -0.6479522388059701 -1.8270492537313432 -2.2998597014925384
H -2.74345223880597 -2.290549253731343 -2.092259701492538
C 0.5698477611940298 -1.5506492537313434 -1.6506597014925382
H 1.5072477611940298 -1.351949253731343 0.2991402985074618
H -0.7173522388059701 -1.7640492537313435 -3.3840597014925375
C 1.7791477611940298 -1.082849253731343 -2.4255597014925376
H 1.4739477611940297 -0.9102492537313429 -3.464259701492538
H 2.1252477611940295 -0.1337492537313434 -2.0010597014925384
C 1.3965477611940298 2.0964507462686566 1.997440298507462
H 1.51704776119403 1.8448507462686567 3.057640298507462
H 2.1256477611940294 1.5207507462686571 1.4165402985074618
C 3.94864776119403 -1.4275492537313434 -3.522959701492538
H 4.81734776119403 -2.087049253731343 -3.615159701492538
H 3.4305477611940303 -1.3641492537313429 -4.484459701492538
H 4.26984776119403 -0.441449253731343 -3.176459701492538
C 2.60904776119403 -3.4296492537313434 -2.8992597014925376
H 1.9825477611940296 -3.869549253731343 -2.119359701492538
H 2.06294776119403 -3.373349253731343 -3.845759701492538
H 3.5215477611940305 -4.019849253731343 -3.0234597014925377
C 3.7281477611940304 -2.060049253731343 -1.156659701492538
H 3.9048477611940298 -1.032549253731343 -0.8295597014925382
H 3.12924776119403 -2.623249253731343 -0.4404597014925382
H 4.68244776119403 -2.5769492537313434 -1.3005597014925383
C 3.1110477611940297 3.755250746268656 2.588740298507462
H 3.40124776119403 4.809350746268656 2.534540298507462
H 2.9823477611940303 3.461750746268656 3.634840298507462
H 3.86514776119403 3.1392507462686563 2.091540298507462
C 1.99744776119403 3.9574507462686572 0.40494029850746194
H 2.67914776119403 3.230350746268657 -0.04295970149253803
H 1.03214776119403 3.981150746268657 -0.10175970149253821
H 2.4399477611940297 4.958250746268657 0.368240298507462
C 0.7418477611940297 4.4992507462686575 2.475440298507462
H -0.18475223880597014 4.424250746268656 1.901240298507462
H 0.57844776119403 4.189650746268656 3.511940298507462
H 1.1210477611940297 5.524350746268658 2.4432402985074617
N 3.00114776119403 -2.025349253731343 -2.490159701492538
N 1.7831477611940298 3.586450746268657 1.862540298507462
C -3.55075223880597 -3.8435492537313434 0.6444402985074619
H -2.62515223880597 -2.2736492537313433 1.7424402985074618
H -4.67195223880597 -1.3478492537313436 1.5102402985074619
H -4.83415223880597 -1.6757492537313432 -0.1945597014925382
H -3.7169522388059697 0.17335074626865676 -0.900559701492538
H -3.9132522388059705 -4.043149253731343 -0.34225970149253815
H -4.35435223880597 -3.9354492537313432 1.3449402985074619
H -2.78115223880597 -4.545049253731343 0.8904402985074619
H -5.24235223880597 1.138950746268657 1.5249402985074618
H -5.92805223880597 0.6501507462686567 -0.006059701492538094
H -4.89895223880597 2.059650746268657 0.08004029850746197
C 3.5119918504214316 -0.4110202505223237 3.105320075920559
O 3.0219913205551405 -0.5391356143592125 4.216743232454421
O 2.965123528699702 -0.7326403850451184 2.044128768065656
O 4.630575237176861 0.06008280848952108 2.869774965454562
O -0.2651660232765076 -1.9186849869762743 -9.559481840080526
H -0.78602854558866 -2.345587808040342 -8.86275838624955
H -0.7575553042561687 -2.111758442403216 -10.37141618538551
O 0.9540829821375039 0.08512150190721801 6.975535210750482
H 1.0519922837243287 0.5182410792976795 6.1142637336633285
H 1.2957854992357616 0.7371842551890939 7.60562687066289
O 5.9184381201663445 3.542466647326567 -1.447645820053552
H 5.284938003307219 3.9738955200435546 -0.8547595859195269
H 6.5902964278839296 3.1817149973427443 -0.8497941614585363
O -5.83270501222421 9.756397728483671 1.506085573263028
H -5.710993295409202 9.282736287523198 0.6695460020309232
H -6.497712866581285 10.430076900294216 1.299003774420017
O 3.154406657389927 -8.89119085094947 1.3923249291925206
H 2.2774910877107115 -8.910252830763362 0.9804717011127204
H 2.9664229648060356 -8.811741355485207 2.339590390028604
O -2.214331239483579 -5.977377507187871 -2.336484563410612
H -2.92512288515867 -6.0323800459499655 -2.9927751347798957
H -2.4555425608794423 -5.2116709214345045 -1.7938313893994553
O -1.9378670480947133 -1.161652854578412 9.46009190050514
H -2.321450083021428 -0.27251588293585405 9.424498953525255
H -1.280429421604227 -1.16160570451602 8.748236782274311
O 4.099395659487818 -3.2503039217039102 -8.533059501736354
H 3.697540057350439 -4.038069427422333 -8.9291717837108
H 4.048760212923428 -3.4159611344386773 -7.579667827910653
O -0.036025730696950475 5.4544731952571865 -7.145786809413855
H -0.1530514742609448 5.474580247453154 -6.184086212192827
H 0.08035873943111804 6.385744518009702 -7.386930589826682
O -10.391958159262671 2.003767733054709 -3.4756081441114572
H -9.928474976927138 1.506699285599455 -2.7849029572650355
H -9.974802697001028 2.8781271790797893 -3.454660023623313
O -1.5885968499145018 8.952049694826826 1.4412533179275293
H -1.7620472850537303 8.767251982361035 0.5059821760026736
H -1.7066394620902998 9.910909948104257 1.5161859589823892
O 6.6608762748132735 -5.185052115216398 -2.6959846619427825
H 7.608016602350351 -5.07576700227276 -2.522925940862755
H 6.264243656272152 -4.3717050890132265 -2.349414142169863
O -1.367424089994354 -3.1190739108857866 -5.05917524041016
H -1.7973475246781 -2.8358496815643877 -5.880099861270706
H -1.4933184579663592 -4.079801210749846 -5.048423137879013
O -5.1478393585835835 8.039593996510387 -1.732615496718656
H -5.129029499418639 8.001821507958134 -2.700699576335073
H -4.521055208819209 7.35298008246866 -1.4593666962666745
O 5.8038175892047 0.14483961797683653 -7.092138442877926
H 5.461216074327785 -0.698486828849044 -6.759885432375266
H 5.512366858840723 0.7920630468250391 -6.432501990564775
O -3.670573473429582 3.064976407346117 4.090573083144288
H -2.8709637951875395 3.6119004882361603 4.068991398681765
H -3.3484312583780027 2.18968098172068 4.353335819202592
O -0.12458214125453507 0.4160737999535634 -4.29844933664654
H -0.059414041199594564 0.5323795108958652 -3.3386611010250387
H 0.7682133398044765 0.6134097375979237 -4.619286836036229
O 4.422896778908269 -9.831993573452724 -0.4174501223918945
H 5.238464525435425 -10.001151779217501 0.07772874342030645
H 4.169314723774017 -10.703922283067199 -0.7556784638476732
O 2.0803487511573855 -7.755536357861273 -8.499852333546404
H 2.1848891702845044 -6.793167738953637 -8.45643230348497
H 2.699983318003484 -8.027220074802015 -9.193540235861782
O -2.1769179455588508 4.346409326417966 -4.846910945008363
H -2.346844434591925 3.400215360315116 -4.7252173801191235
H -1.874043668786051 4.643752122196321 -3.9758102742658457
C -2.516523937650502 8.086137469488087 -8.618670900769608
O -1.6699167873338343 8.931886979832967 -8.590700271815503
O -3.3631310879671683 7.240387959143206 -8.646641529723713
O 17.956196048825838 7.596634936270956 -3.7593571149604017
H 17.875334366540816 7.30098379765719 -2.840107883535963
H 18.90937330123092 7.72010206126466 -3.882527480078363
O -2.55831373590181 -0.29695351886103816 6.1312234439500966
H -2.8028810627377014 0.3151544601889552 5.42095729557494
H -3.402022990526438 -0.5098289854647591 6.557604346054075
O 4.830429516559569 15.759449354106794 5.629225958413004
H 5.308731940894609 15.884991782063889 4.795899343838705
H 4.815735137868269 16.64331898814433 6.026114468653889
O 5.177375270609869 4.1850189921038785 -18.743706307975796
H 4.8113748729675825 4.493204850551579 -19.586340595480493
H 4.926033267177093 3.249887780861335 -18.707391581342492
O 3.407184485945548 14.034192549932595 -11.412453643576958
H 3.6308450432966577 13.104531139249623 -11.569529973659957
H 2.57021968875501 13.99456220736139 -10.925749104342433
O -0.5501677360278722 -10.806976901047099 -0.5312286442260138
H -0.8683727280270331 -11.32364716017696 0.22426111963415474
H 0.1868074832416639 -10.29245633169916 -0.16915399142566562
O -11.649847271999894 14.614801126684403 9.344449228455648
H -11.623310329203541 14.587299564158972 8.376199874401804
H -10.86445865367564 14.115545888284442 9.614395277578286
O -9.222283468892595 3.744369146422273 -7.605964685562403
H -9.498527659142109 3.749337589745607 -8.534744432770713
H -9.888967356755172 3.195468396547103 -7.166416616802093
O 14.203856684745293 -9.28563328511797 7.3398697484017665
H 13.577188051836757 -8.97792001221632 8.01185659582417
H 13.748744285649856 -9.11770293771449 6.501040774825782
O 7.686778044420691 -9.47181880507441 -8.996439108686019
H 7.813961758452118 -9.477509442622951 -8.035835508635788
H 6.934845200238214 -8.875273782034531 -9.129454061326701
O -5.571243291420398 -15.145815905866586 2.045432362618337
H -5.184770514674938 -14.282381891396867 1.8354612874880674
H -5.088951764915967 -15.763074110593342 1.4750385193315028
O -9.019190355677468 10.357175155752032 -6.256181977673919
H -8.99087495006695 10.307108932197451 -5.2888873131770575
H -8.541835350097635 11.174859504640924 -6.462304389191986
O 9.577534314781413 -9.799463300004383 -12.66242316058408
H 10.149430580459097 -10.558753066835244 -12.850521720360238
H 10.198115517762535 -9.084569282099391 -12.45562021580292
O -10.23133680946989 -13.632648427820135 -2.4571641007370264
H -10.228026655933489 -12.835603982699158 -3.0082326557148638
H -10.091414722025132 -14.35429640360789 -3.088518163673613
O 9.137483239842425 -9.9869576056027 -15.190337805399118
H 9.203437906109261 -10.879269359769642 -15.562355375243808
H 8.276120528488455 -9.667830685982766 -15.498841019260544
O 13.046627317149232 -8.267816246239489 -2.9786744785466137
H 12.994661116175227 -7.568262386176481 -2.3101752132311786
H 12.199859144283586 -8.731976702625508 -2.8980477060123357
O -4.392113040835781 -17.494128685482604 -6.6622330632408415
H -3.6914195016340945 -16.944392809709463 -6.280413226264089
H -4.024414255186191 -18.39039389378532 -6.640594585523869
O 9.588041451335846 -6.913715444811633 -11.457189214300476
H 9.744602816426205 -6.0634956212027475 -11.894890193741372
H 10.217954971492258 -6.917406305311684 -10.720875912116599
O -4.645916620773002 -14.622172104170328 -12.717137775150487
H -5.17388149954785 -15.427459107552396 -12.608817482203197
H -3.8352367858495633 -14.930180695752817 -13.149446527155204
O -10.264327541395028 11.09160450789432 3.879513850135828
H -9.493647872482255 11.478226355381626 4.321717142604349
H -9.89925288558814 10.342046715900537 3.385706644387583