194

C -5.0710522388059704 1.0783507462686561 0.47044029850746183
C -3.8153522388059704 0.1782507462686569 0.19534029850746193
C -4.11845223880597 -1.3219492537313435 0.5608402985074619
C -2.96945223880597 -2.3874492537313436 0.7034402985074619
C -2.52015223880597 0.7359507462686565 0.7384402985074618
C -2.20305223880597 0.7852507462686571 2.097440298507462
C -1.5755522388059702 1.205650746268656 -0.18965970149253808
C -0.9533522388059701 1.2695507462686564 2.508640298507462
H -2.91125223880597 0.4298507462686567 2.840840298507462
C -0.32655223880597006 1.6562507462686575 0.21554029850746192
H -1.7850522388059702 1.178550746268657 -1.2573597014925382
C 0.004447761194029898 1.6956507462686563 1.569740298507462
H -0.7158522388059702 1.2676507462686573 3.5705402985074617
H 0.3943477611940298 1.9193507462686572 -0.5551597014925382
C -1.76045223880597 -2.1592492537313435 -0.1734597014925381
C -0.5287522388059701 -1.936549253731343 0.464840298507462
C -1.8068522388059702 -2.121249253731343 -1.5681597014925381
C 0.6114477611940299 -1.614449253731343 -0.2582597014925381
H -0.4544522388059702 -1.954049253731343 1.5506402985074619
C -0.6479522388059701 -1.8270492537313432 -2.2998597014925384
H -2.74345223880597 -2.290549253731343 -2.092259701492538
C 0.5698477611940298 -1.5506492537313434 -1.6506597014925382
H 1.5072477611940298 -1.351949253731343 0.2991402985074618
H -0.7173522388059701 -1.7640492537313435 -3.3840597014925375
C 1.7791477611940298 -1.082849253731343 -2.4255597014925376
H 1.4739477611940297 -0.9102492537313429 -3.464259701492538
H 2.1252477611940295 -0.1337492537313434 -2.0010597014925384
C 1.3965477611940298 2.0964507462686566 1.997440298507462
H 1.51704776119403 1.8448507462686567 3.057640298507462
H 2.1256477611940294 1.5207507462686571 1.4165402985074618
C 3.94864776119403 -1.4275492537313434 -3.522959701492538
H 4.81734776119403 -2.087049253731343 -3.615159701492538
H 3.4305477611940303 -1.3641492537313429 -4.484459701492538
H 4.26984776119403 -0.441449253731343 -3.176459701492538
C 2.60904776119403 -3.4296492537313434 -2.8992597014925376
H 1.9825477611940296 -3.869549253731343 -2.119359701492538
H 2.06294776119403 -3.373349253731343 -3.845759701492538
H 3.5215477611940305 -4.019849253731343 -3.0234597014925377
C 3.7281477611940304 -2.060049253731343 -1.156659701492538
H 3.9048477611940298 -1.032549253731343 -0.8295597014925382
H 3.12924776119403 -2.623249253731343 -0.4404597014925382
H 4.68244776119403 -2.5769492537313434 -1.3005597014925383
C 3.1110477611940297 3.755250746268656 2.588740298507462
H 3.40124776119403 4.809350746268656 2.534540298507462
H 2.9823477611940303 3.461750746268656 3.634840298507462
H 3.86514776119403 3.1392507462686563 2.091540298507462
C 1.99744776119403 3.9574507462686572 0.40494029850746194
H 2.67914776119403 3.230350746268657 -0.04295970149253803
H 1.03214776119403 3.981150746268657 -0.10175970149253821
H 2.4399477611940297 4.958250746268657 0.368240298507462
C 0.7418477611940297 4.4992507462686575 2.475440298507462
H -0.18475223880597014 4.424250746268656 1.901240298507462
H 0.57844776119403 4.189650746268656 3.511940298507462
H 1.1210477611940297 5.524350746268658 2.4432402985074617
N 3.00114776119403 -2.025349253731343 -2.490159701492538
N 1.7831477611940298 3.586450746268657 1.862540298507462
C -3.55075223880597 -3.8435492537313434 0.6444402985074619
H -2.62515223880597 -2.2736492537313433 1.7424402985074618
H -4.67195223880597 -1.3478492537313436 1.5102402985074619
H -4.83415223880597 -1.6757492537313432 -0.1945597014925382
H -3.7169522388059697 0.17335074626865676 -0.900559701492538
H -3.9132522388059705 -4.043149253731343 -0.34225970149253815
H -4.35435223880597 -3.9354492537313432 1.3449402985074619
H -2.78115223880597 -4.545049253731343 0.8904402985074619
H -5.24235223880597 1.138950746268657 1.5249402985074618
H -5.92805223880597 0.6501507462686567 -0.006059701492538094
H -4.89895223880597 2.059650746268657 0.08004029850746197
C 1.8277773356958364 -1.8210099663256436 3.3469837004892264
O 2.6912855139556577 -1.5521937037627294 2.526089711194561
O 2.027947929615003 -2.3621440245082406 4.440481358696542
O 0.620107050301608 -1.5935092867832268 3.2112475336671102
O -4.940164138823108 -1.9098888557790328 -4.214768596657272
H -5.253678091049508 -1.0047306588755278 -4.360936299101343
H -4.281370383266156 -1.818477347601694 -3.5100724436154738
O 3.5621661276781476 5.257691995854039 -9.063211287334415
H 3.456867465988246 5.0727578720784905 -10.008557212702314
H 3.6016811193122233 4.379355367521081 -8.655872022022505
O -8.353860429509432 -2.4507219314984363 4.510085300973825
H -8.186076954270831 -2.74679972783688 3.602806952917271
H -8.781306041357741 -3.212467271595787 4.929604347086865
O -3.602247071664891 -5.720345319930505 8.762169647909243
H -3.1375952230267306 -6.205662168475388 9.460405691790971
H -3.0427423137857845 -5.8420331199927205 7.980435390295661
O -7.74044601613692 4.393692189066011 3.4226143860585383
H -7.576323537206915 4.498984570230559 4.371795445329409
H -6.970053518717957 4.80690000024543 3.004623179212168
O -6.916786743550219 -0.8293680785350656 5.520984322069099
H -7.16657210593558 -0.5792257109540068 4.618762938162158
H -6.109990769482746 -1.3531124238402221 5.403791910670629
O -5.618665768104397 0.842463865223289 7.829981339192491
H -5.375655743201577 0.637062712138492 8.745253894778074
H -6.047128923579437 0.032723890983113346 7.5142244028983045
O 5.342711150137028 6.017894598419453 0.47474939195317045
H 4.459477311260533 6.199236924982606 0.8296864333565077
H 5.225393214119043 5.2063263673932285 -0.041540693732625034
O -2.3801089562791082 4.274957852489389 -1.1272865055774697
H -2.5115947541734513 4.893535864792652 -1.8614799981576153
H -3.19973363357932 4.342350160266615 -0.6148066430336002
O -0.4819942011734316 -6.001004380488403 -1.660804874763631
H -0.47689096512532303 -5.271962156831956 -2.2991141650045788
H 0.19048092671709416 -5.7476652193507825 -1.0107599408531298
O 11.960838104030328 -5.0677997822702565 -1.84851526888712
H 11.580126641624886 -4.796433088922909 -0.9997595578401559
H 11.339144516101877 -4.720468558048106 -2.505645429288381
O -3.6752614279808715 -11.043537222221891 -0.7538991139668809
H -2.8976975014934108 -10.539581655293869 -1.037431270322487
H -4.423153634941038 -10.536954020432402 -1.1046021945535212
O 3.149839098082342 -8.423203915403004 -1.8008667188446865
H 2.279646241312082 -8.652433124120861 -2.160290867722581
H 3.1293744483888126 -8.77278261260744 -0.8973525369561175
O 3.492846039845472 7.5701970871621755 7.637675524667279
H 3.5015354411493087 7.309141224907917 8.570810931769413
H 2.8133586902092036 7.003590968672525 7.242433329963358
O -4.815942344637915 -5.747426459999685 6.012774171433964
H -5.236420826374874 -5.024059124598107 5.5239951811221815
H -4.90408901025028 -6.510942395726982 5.422659330464944
O -3.6874455229035488 -1.9361202925921255 -7.061737407433293
H -2.7216192122878446 -2.0139845685272757 -7.05256957478035
H -3.902414931515332 -1.5864464130373537 -6.183968488173663
O 2.7617107084810906 7.137063044615032 -3.5349544848313204
H 2.4053114045341806 6.2405671218099865 -3.6257396897938583
H 1.9956167986495894 7.667730231851346 -3.2695220037560366
O -2.844761591291606 -8.673016564342895 5.121215999479381
H -2.594882491236399 -8.621316158065547 4.186413956132045
H -3.8096208512516787 -8.760217147379928 5.10110105261634
O 7.347055912951663 0.966389114468126 5.77692014035541
H 7.124790756553938 0.7979061653970803 6.704917474954932
H 6.991527529662328 1.8518672226383468 5.608130232698119
O 7.093029089709491 5.164387573565581 3.1333258378035738
H 6.7075854186376045 5.643608812808925 3.8821566178792217
H 8.031308522306798 5.087255374389346 3.362769239354185
C -12.7005331771306 10.424880087497053 -0.1353963733351593
O -12.159597411325196 11.34164105416026 -0.6828962222623209
O -13.241468942936004 9.508119120833848 0.4121034755920041
O -11.241375445734342 4.794447517781224 -18.707774032130608
H -11.037955234719925 5.308997310087281 -19.50327770018541
H -12.190436936609018 4.613644402206825 -18.78230231023579
O 7.479565251003846 -8.233499863662416 12.525094881917042
H 6.69550840415936 -7.676271022846864 12.40797000505632
H 7.179796068793777 -9.117197311869294 12.263983408155816
O -6.6515074852220994 9.45700039543354 -0.27552951103048207
H -6.008546128874861 8.756346332089942 -0.461679812304007
H -6.104046804037572 10.217642263911836 -0.029211231613752386
O 5.268978175111878 -7.237997260129486 16.37939893491813
H 4.996390192813308 -7.035584815544509 17.28697391864318
H 5.453491362208938 -8.189104866100081 16.39703837799801
O 0.5818906246383939 -5.700736192080349 -10.191554100622126
H 0.27645211172188766 -6.356487204479409 -9.546833012503424
H 1.5147153370568276 -5.924276738798223 -10.32877517835635
O 12.774810122513417 -11.83641325347875 -7.091170503514384
H 11.839128220271796 -12.079608283034538 -7.025421645601433
H 12.756358193097693 -10.89971698147051 -7.338600422090746
O -5.569150559991156 17.5364031667371 15.652200404323809
H -5.4050100039886875 18.473903494554587 15.470215871691769
H -4.906532474749954 17.308380801067898 16.3214574686615
O -2.3085660594106083 -3.275973254135027 9.458059004759226
H -1.4709971893496439 -3.258126842332993 9.94501613879732
H -2.2698312710751734 -4.103873871735519 8.956021030249996
O -7.594566912976507 -1.7538495899328321 17.66265711900466
H -6.682286899276285 -1.9796111924256685 17.898759284058247
H -7.580223110616475 -0.789520278450313 17.568714697013817
O -1.026489191702784 9.339761983565625 20.06915703709644
H -1.3479734138861907 9.100611203402694 20.95143939333768
H -0.16720770534702556 9.754729742462601 20.23767715631744
O 12.531733575315569 -8.567611573075283 13.51378667682968
H 12.594629309328385 -8.81547875043428 12.57913521990519
H 11.63596302543021 -8.208497662309206 13.600931759033877
O -8.511378471178253 -3.322560497419281 -7.800696533728899
H -8.878629022769067 -3.3403804897044664 -8.69723255482967
H -7.73978256825611 -2.741157842277263 -7.875346781468431
O -7.948570213402895 2.705006371449038 7.408759921628955
H -7.43404456477482 2.4713702214993765 8.195935164659728
H -8.339233694020274 3.5635185047753843 7.63079799526355
O 3.1279314870311414 7.391733508559546 14.226938948143001
H 3.09596316789873 7.438221892508574 13.259579545630336
H 2.732536162389439 8.228297159360569 14.514664059507908
O 8.476156490628648 -17.878580948078646 5.926117271256456
H 8.240882704108373 -17.54172889701491 5.048538614969419
H 9.285242332166519 -18.388980819745413 5.771734576871665
O 3.0023428618255403 -3.2548907558284634 -18.226606421867057
H 3.824404603369327 -3.4936107802467298 -17.772519866316532
H 3.1366464447351827 -2.3301451245213736 -18.48306306400386
O -19.064840167039733 -1.1267219599013463 11.98203871830454
H -19.64358710478913 -1.8971984375190352 12.083947188921702
H -19.190066077422777 -0.629535143854841 12.804283016319598
O 7.269585654361956 10.558471292679002 -6.326426573683815
H 6.984079330891924 10.66340466814429 -7.246449661911544
H 8.172206768045458 10.213623643871417 -6.399345491288461
O -9.995400507422055 7.644523812892755 4.069048519451888
H -9.98638306360945 7.677001917457182 5.0374653797610165
H -9.07805600004545 7.440075077336221 3.8331635610181007
O 0.7618482893985465 -2.6278748509794276 -7.056051712407925
H -0.15305847188398136 -2.8374269578744613 -7.296885450815501
H 0.7470640656677761 -1.673587687265512 -6.888482681260969