194

C -5.0710522388059704 1.0783507462686561 0.47044029850746183
C -3.8153522388059704 0.1782507462686569 0.19534029850746193
C -4.11845223880597 -1.3219492537313435 0.5608402985074619
C -2.96945223880597 -2.3874492537313436 0.7034402985074619
C -2.52015223880597 0.7359507462686565 0.7384402985074618
C -2.20305223880597 0.7852507462686571 2.097440298507462
C -1.5755522388059702 1.205650746268656 -0.18965970149253808
C -0.9533522388059701 1.2695507462686564 2.508640298507462
H -2.91125223880597 0.4298507462686567 2.840840298507462
C -0.32655223880597006 1.6562507462686575 0.21554029850746192
H -1.7850522388059702 1.178550746268657 -1.2573597014925382
C 0.004447761194029898 1.6956507462686563 1.569740298507462
H -0.7158522388059702 1.2676507462686573 3.5705402985074617
H 0.3943477611940298 1.9193507462686572 -0.5551597014925382
C -1.76045223880597 -2.1592492537313435 -0.1734597014925381
C -0.5287522388059701 -1.936549253731343 0.464840298507462
C -1.8068522388059702 -2.121249253731343 -1.5681597014925381
C 0.6114477611940299 -1.614449253731343 -0.2582597014925381
H -0.4544522388059702 -1.954049253731343 1.5506402985074619
C -0.6479522388059701 -1.8270492537313432 -2.2998597014925384
H -2.74345223880597 -2.290549253731343 -2.092259701492538
C 0.5698477611940298 -1.5506492537313434 -1.6506597014925382
H 1.5072477611940298 -1.351949253731343 0.2991402985074618
H -0.7173522388059701 -1.7640492537313435 -3.3840597014925375
C 1.7791477611940298 -1.082849253731343 -2.4255597014925376
H 1.4739477611940297 -0.9102492537313429 -3.464259701492538
H 2.1252477611940295 -0.1337492537313434 -2.0010597014925384
C 1.3965477611940298 2.0964507462686566 1.997440298507462
H 1.51704776119403 1.8448507462686567 3.057640298507462
H 2.1256477611940294 1.5207507462686571 1.4165402985074618
C 3.94864776119403 -1.4275492537313434 -3.522959701492538
H 4.81734776119403 -2.087049253731343 -3.615159701492538
H 3.4305477611940303 -1.3641492537313429 -4.484459701492538
H 4.26984776119403 -0.441449253731343 -3.176459701492538
C 2.60904776119403 -3.4296492537313434 -2.8992597014925376
H 1.9825477611940296 -3.869549253731343 -2.119359701492538
H 2.06294776119403 -3.373349253731343 -3.845759701492538
H 3.5215477611940305 -4.019849253731343 -3.0234597014925377
C 3.7281477611940304 -2.060049253731343 -1.156659701492538
H 3.9048477611940298 -1.032549253731343 -0.8295597014925382
H 3.12924776119403 -2.623249253731343 -0.4404597014925382
H 4.68244776119403 -2.5769492537313434 -1.3005597014925383
C 3.1110477611940297 3.755250746268656 2.588740298507462
H 3.40124776119403 4.809350746268656 2.534540298507462
H 2.9823477611940303 3.461750746268656 3.634840298507462
H 3.86514776119403 3.1392507462686563 2.091540298507462
C 1.99744776119403 3.9574507462686572 0.40494029850746194
H 2.67914776119403 3.230350746268657 -0.04295970149253803
H 1.03214776119403 3.981150746268657 -0.10175970149253821
H 2.4399477611940297 4.958250746268657 0.368240298507462
C 0.7418477611940297 4.4992507462686575 2.475440298507462
H -0.18475223880597014 4.424250746268656 1.901240298507462
H 0.57844776119403 4.189650746268656 3.511940298507462
H 1.1210477611940297 5.524350746268658 2.4432402985074617
N 3.00114776119403 -2.025349253731343 -2.490159701492538
N 1.7831477611940298 3.586450746268657 1.862540298507462
C -3.55075223880597 -3.8435492537313434 0.6444402985074619
H -2.62515223880597 -2.2736492537313433 1.7424402985074618
H -4.67195223880597 -1.3478492537313436 1.5102402985074619
H -4.83415223880597 -1.6757492537313432 -0.1945597014925382
H -3.7169522388059697 0.17335074626865676 -0.900559701492538
H -3.9132522388059705 -4.043149253731343 -0.34225970149253815
H -4.35435223880597 -3.9354492537313432 1.3449402985074619
H -2.78115223880597 -4.545049253731343 0.8904402985074619
H -5.24235223880597 1.138950746268657 1.5249402985074618
H -5.92805223880597 0.6501507462686567 -0.006059701492538094
H -4.89895223880597 2.059650746268657 0.08004029850746197
C -0.2750582217677737 3.0163676602403053 -3.601653271842755
O 0.17221292645370379 4.090792398948766 -3.2310652264069963
O 0.03989521762945203 1.9148983529302783 -3.136678906779662
O -1.1118690284937345 2.8642689635218335 -4.4990172139549784
O -3.398721832722346 -4.835616550143968 6.583005440809539
H -3.4365984598366413 -4.827450454549387 5.614777144950971
H -2.5191600518378676 -4.483194560526623 6.785815103156964
O 3.007329349122477 -8.74795123027494 -2.269287173383354
H 2.8499116508641658 -8.345870252503682 -1.401809270212578
H 2.2472444440422383 -9.335384645772164 -2.396388958289888
O 7.525452318314462 3.574462986933704 5.633793267103514
H 7.778127120526657 3.039769799279276 4.866182691158279
H 6.987951243682103 4.286803812858818 5.256135900182942
O -6.218226532741041 2.451676063656924 -5.738950085429517
H -5.476529094643458 1.9796206715031075 -5.33149950688288
H -6.3049273711059985 3.2561315564185875 -5.205755684584568
O 1.1557618645007723 -6.689952927126625 2.040600196520633
H 2.065000780334839 -6.971201513605168 1.8585255320647731
H 1.2551482913581233 -5.993883903685091 2.707362670765904
O 5.379321277876372 1.238628986859669 7.060986166176928
H 4.903515980927262 1.1592264376571002 7.901386018315959
H 4.677660700016018 1.2272131611548898 6.392776575778713
O -9.30551827144278 2.0083917604410657 -2.449554460117476
H -9.560229658715691 1.3507514501756588 -3.1140833822928244
H -8.921042988781284 2.7299261430116197 -2.9696783262213966
O 7.879253090522562 0.6703021627041708 0.4137357000258368
H 7.077761121820452 1.1465639493564423 0.6778430486187966
H 8.421041025594008 0.6603747824513758 1.2170595605156982
O -7.303342828078349 5.9287107754132 -2.537190748386965
H -6.865888261725126 5.068977575434918 -2.6291672895907885
H -6.7061039288184965 6.544602697469816 -2.9876846793741496
O 6.627920575011002 -2.6927951898495133 -4.67492114730437
H 7.414979215630306 -3.2550653033322408 -4.616969679586848
H 6.799776639623881 -1.983198807596301 -4.037818006793411
O 6.489169086230282 -0.4894667810741762 -2.194503358510967
H 7.357423711661901 -0.9165840585313241 -2.1428110610751303
H 6.6958118081780995 0.43958180151874426 -2.3765183604972884
O 1.1622335228788656 -5.679497746893535 -3.832399169968113
H 1.1217553610762194 -5.674697444783428 -4.800544733618916
H 0.24280288909094816 -5.819564075423674 -3.5603868953104527
O -2.1709712795290494 -7.450344534596407 -9.31207002600642
H -1.7470019579962344 -6.579158429935623 -9.29619103532779
H -2.0046699876199146 -7.775253481476492 -10.20970023987326
O -5.6859624303175575 -3.1518624186496673 -6.187414054748469
H -5.113648809488659 -3.726300208808877 -5.656899491752578
H -6.084078012497559 -3.7522234395376204 -6.835513254041181
O -5.315969352651226 -2.183003917688662 3.4626245181470807
H -4.437499205818025 -2.4953200801876143 3.198586315106721
H -5.45702332685402 -2.5881224484054846 4.331500053958418
O -2.5845185953304433 6.105283907474864 -3.2966887715045314
H -2.4387959728499076 5.464563213682082 -4.008875029967227
H -2.1702816998346783 6.917690687615573 -3.6243547024333305
O -8.916436726789808 -3.908315469631127 0.7458715954999682
H -8.416074861835178 -3.745578969303481 1.55958050688059
H -8.253756812808042 -3.827622295435318 0.04351421670814215
O 4.0512221178510615 -1.7232943158803935 4.478356938580615
H 3.9546746786238467 -1.3090869930362747 3.6076800509920117
H 4.550177523782155 -2.534098213038696 4.297795349240454
O -3.6494431367517457 1.4684479793202634 5.301973545164442
H -3.2293208238199815 2.1128458942134687 5.891223853911203
H -3.7003786090474113 1.9282622754666086 4.450540438560371
O 5.2207679920604155 -4.919679045424659 2.4782247301374345
H 4.716511206270417 -4.600756396011609 1.7146929399832183
H 5.887831639722835 -4.231715770116965 2.622080790472812
C 1.7640717891204223 -14.00532913202296 1.318638171197288
O 1.5857672074695697 -14.103474096755567 0.13906481639482
O 1.942376370771275 -13.907184167290351 2.498211525999757
O -21.96954065468944 -11.780291966912813 5.688340948485355
H -22.449566557308586 -11.743209093066568 6.529273377508031
H -22.005141095355377 -10.869971524635822 5.358172438028928
O -16.6302906984121 9.880454960671939 2.118988565271751
H -16.54672421469782 9.45119350639047 1.254281329516325
H -16.544223698300243 9.151427251815093 2.751501818501028
O 11.860180981752547 7.7275920585754 -1.6366122141877923
H 11.110711123733159 7.626869435067672 -1.0307102073136454
H 11.834355237814938 8.663235795297599 -1.8873426933533533
O -12.717248412588702 -14.492857043069634 -10.376774981899148
H -13.684972980986839 -14.443313331373872 -10.37209126008327
H -12.438921321070177 -13.675838102916433 -9.936347887072118
O 3.8261264219404616 -2.426992565859186 -13.715124808226783
H 3.8204627155316624 -2.392775851143634 -14.683507220171462
H 3.555106943469894 -1.5358853412884816 -13.447845364745927
O -6.827313115691309 11.732636334372543 -10.016161194904717
H -6.193186166106153 12.455784879228027 -10.13408723436684
H -7.6733082541882105 12.115759274167253 -10.292695067952238
O 7.459964568732648 -8.45016664868794 -7.586177148338069
H 7.384687323787041 -8.37917239209914 -6.622714378520364
H 8.109487867772286 -9.156923161875099 -7.718754142466724
O -4.4892179837672215 -4.384511624968437 -13.077438505101652
H -4.6516524975281985 -4.362526770621556 -14.032477274900335
H -4.226858118086849 -3.4765269715891156 -12.863679027164865
O 9.897167539562211 -6.826503730230469 8.658407455471439
H 10.263535464970609 -6.413578049258045 7.862019181998376
H 9.612770551665356 -7.702772924205652 8.35802004350935
O -12.121710560105972 12.526616064971593 -7.225660376356988
H -11.419523068123477 11.946583680307667 -7.556511575152479
H -12.387931511695085 12.11779087085372 -6.388432623657955
O 16.7775424114241 10.352233360451933 -3.9974333307247836
H 16.803009111544483 10.468603298115529 -4.959086512330892
H 17.38119212942929 11.032603063531425 -3.663268656673536
O 6.244987088508231 14.312135120970058 -8.628619203563524
H 6.507744535553494 15.148176403835134 -8.215145075875245
H 5.349178356861804 14.156651232829455 -8.293487257705328
O 9.451599656227796 2.3711695969340836 18.50012513915193
H 9.510734806993629 1.8094261525014597 17.712778523308007
H 9.077416187395476 3.201019272670389 18.16801342356068
O 15.747846522924357 3.8738967507834356 -14.478907601680449
H 15.241118059353468 3.0834878996349673 -14.239225584972383
H 16.64400266201775 3.68169279724905 -14.164386125607711
O 2.020257114884309 -13.416674285840962 -5.888510602355889
H 1.732811549251392 -13.37829386316973 -4.963919153740041
H 2.6592997140926036 -14.144903330543288 -5.904910576412105
O 12.311852193951612 -5.019205527918075 3.770671413172546
H 11.69691692193684 -4.709202778639792 4.452375354463799
H 13.184618558894186 -4.777369016963178 4.115281219321595
O 4.46959698158989 -9.285239839815173 -13.366680044894572
H 4.893233725429677 -9.88439637932085 -12.733820892052169
H 4.01774411628176 -8.635546683571828 -12.807493371999563
O 17.150806681084138 -4.896954003487176 9.465521811243251
H 16.89243665648334 -4.891630639223816 8.53161392013155
H 18.044424835761717 -4.522249391085769 9.463287672540014
O 2.1310948276295623 13.927046086625815 -1.083063688476174
H 2.1548183712538043 14.509348827992108 -1.8572265058312887
H 2.1659766359708854 14.53655670102035 -0.33057314721520115
O 2.3501745605544153 13.155155763986638 3.8092844266978862
H 2.1802521799870567 12.921720232967905 4.734271774903431
H 3.2838573152963906 13.414249845747538 3.800995000064363