194

C -5.0710522388059704 1.0783507462686561 0.47044029850746183
C -3.8153522388059704 0.1782507462686569 0.19534029850746193
C -4.11845223880597 -1.3219492537313435 0.5608402985074619
C -2.96945223880597 -2.3874492537313436 0.7034402985074619
C -2.52015223880597 0.7359507462686565 0.7384402985074618
C -2.20305223880597 0.7852507462686571 2.097440298507462
C -1.5755522388059702 1.205650746268656 -0.18965970149253808
C -0.9533522388059701 1.2695507462686564 2.508640298507462
H -2.91125223880597 0.4298507462686567 2.840840298507462
C -0.32655223880597006 1.6562507462686575 0.21554029850746192
H -1.7850522388059702 1.178550746268657 -1.2573597014925382
C 0.004447761194029898 1.6956507462686563 1.569740298507462
H -0.7158522388059702 1.2676507462686573 3.5705402985074617
H 0.3943477611940298 1.9193507462686572 -0.5551597014925382
C -1.76045223880597 -2.1592492537313435 -0.1734597014925381
C -0.5287522388059701 -1.936549253731343 0.464840298507462
C -1.8068522388059702 -2.121249253731343 -1.5681597014925381
C 0.6114477611940299 -1.614449253731343 -0.2582597014925381
H -0.4544522388059702 -1.954049253731343 1.5506402985074619
C -0.6479522388059701 -1.8270492537313432 -2.2998597014925384
H -2.74345223880597 -2.290549253731343 -2.092259701492538
C 0.5698477611940298 -1.5506492537313434 -1.6506597014925382
H 1.5072477611940298 -1.351949253731343 0.2991402985074618
H -0.7173522388059701 -1.7640492537313435 -3.3840597014925375
C 1.7791477611940298 -1.082849253731343 -2.4255597014925376
H 1.4739477611940297 -0.9102492537313429 -3.464259701492538
H 2.1252477611940295 -0.1337492537313434 -2.0010597014925384
C 1.3965477611940298 2.0964507462686566 1.997440298507462
H 1.51704776119403 1.8448507462686567 3.057640298507462
H 2.1256477611940294 1.5207507462686571 1.4165402985074618
C 3.94864776119403 -1.4275492537313434 -3.522959701492538
H 4.81734776119403 -2.087049253731343 -3.615159701492538
H 3.4305477611940303 -1.3641492537313429 -4.484459701492538
H 4.26984776119403 -0.441449253731343 -3.176459701492538
C 2.60904776119403 -3.4296492537313434 -2.8992597014925376
H 1.9825477611940296 -3.869549253731343 -2.119359701492538
H 2.06294776119403 -3.373349253731343 -3.845759701492538
H 3.5215477611940305 -4.019849253731343 -3.0234597014925377
C 3.7281477611940304 -2.060049253731343 -1.156659701492538
H 3.9048477611940298 -1.032549253731343 -0.8295597014925382
H 3.12924776119403 -2.623249253731343 -0.4404597014925382
H 4.68244776119403 -2.5769492537313434 -1.3005597014925383
C 3.1110477611940297 3.755250746268656 2.588740298507462
H 3.40124776119403 4.809350746268656 2.534540298507462
H 2.9823477611940303 3.461750746268656 3.634840298507462
H 3.86514776119403 3.1392507462686563 2.091540298507462
C 1.99744776119403 3.9574507462686572 0.40494029850746194
H 2.67914776119403 3.230350746268657 -0.04295970149253803
H 1.03214776119403 3.981150746268657 -0.10175970149253821
H 2.4399477611940297 4.958250746268657 0.368240298507462
C 0.7418477611940297 4.4992507462686575 2.475440298507462
H -0.18475223880597014 4.424250746268656 1.901240298507462
H 0.57844776119403 4.189650746268656 3.511940298507462
H 1.1210477611940297 5.524350746268658 2.4432402985074617
N 3.00114776119403 -2.025349253731343 -2.490159701492538
N 1.7831477611940298 3.586450746268657 1.862540298507462
C -3.55075223880597 -3.8435492537313434 0.6444402985074619
H -2.62515223880597 -2.2736492537313433 1.7424402985074618
H -4.67195223880597 -1.3478492537313436 1.5102402985074619
H -4.83415223880597 -1.6757492537313432 -0.1945597014925382
H -3.7169522388059697 0.17335074626865676 -0.900559701492538
H -3.9132522388059705 -4.043149253731343 -0.34225970149253815
H -4.35435223880597 -3.9354492537313432 1.3449402985074619
H -2.78115223880597 -4.545049253731343 0.8904402985074619
H -5.24235223880597 1.138950746268657 1.5249402985074618
H -5.92805223880597 0.6501507462686567 -0.006059701492538094
H -4.89895223880597 2.059650746268657 0.08004029850746197
C 1.917495014463297 -1.8948613383413133 4.488074259150467
O 1.5732508213041259 -2.1426727037743594 5.633439249552392
O 2.275806457799007 -2.7345267129195276 3.6542838583847193
O 1.9608249417127963 -0.766050636032771 3.9855234655402607
O -6.853250798834759 3.4533997804032976 -2.0321749256135107
H -7.11679376322268 2.6701753816012515 -2.538210501381462
H -7.44035472295977 4.151625022424108 -2.358904841571624
O 5.323956442285744 -5.164457744801782 3.64185147319036
H 5.225825999863089 -5.680385134447205 2.8275071346064933
H 6.11152803953065 -5.539979144929927 4.063368497234354
O 6.528566855477506 7.001516979195274 3.2704565869174838
H 6.524311922477482 6.366583051212017 2.5384674069831625
H 7.267602142422327 6.712597360984883 3.826616854433555
O 6.512835923694423 9.087985839683622 -0.6330769506069931
H 5.598611781035639 8.84354032487149 -0.4247311703088452
H 6.992273408309781 8.246361049982694 -0.6053396831394431
O 9.517181414922193 -0.4194147065146776 5.895543574265503
H 9.731498086749736 0.1714477181123728 6.633051076763348
H 8.674247626458433 -0.07890467938377466 5.5601669292983225
O -5.08505135704049 0.318846530201061 -8.231865386193897
H -6.01168869813737 0.4454459733028422 -8.485406656978801
H -4.586508008224704 0.6515725581858174 -8.993252189305842
O 0.03919293306995408 -5.683861033267446 3.94442803016429
H 0.7911459466896353 -5.48529622632962 3.3664089650340605
H -0.7138639594406957 -5.265327155742811 3.5009230647959235
O 7.311483958380668 2.8846675606014522 2.756560696677462
H 7.220701421349458 2.5955567656921197 3.6769632369483327
H 8.238480611404288 2.699658461882178 2.543462637150659
O 1.8110491771452124 3.6362527695657905 -7.594013749247795
H 2.086219804342386 3.3729018310803545 -8.48502147425738
H 1.8384900954955468 2.810906968999739 -7.087049007093004
O 5.05343011963393 -1.2194506763343327 5.999147902600457
H 5.054267060468728 -0.6308056712021104 5.229431257098408
H 4.355979433320911 -1.862410049679534 5.801340600690127
O -6.45990018366903 6.001893403505708 -1.8525468972827532
H -6.6482264703392 5.820044465408668 -0.9195776960965591
H -5.745507397272347 5.384979056925653 -2.0716851642013485
O 9.27839444118571 1.5656264405892255 -1.9898782020381167
H 8.606098302450048 2.0982953465266516 -1.5390466421528919
H 9.097307533986804 0.660852151108541 -1.6939847052595365
O 5.40924405379471 -6.837785024603816 -1.2668541906765776
H 5.347351012495503 -6.578178178411831 -0.3353280806029053
H 5.830993778823098 -6.077250093189848 -1.6942600070123295
O -0.013937449662912105 -6.437304967275983 -2.285450062699241
H -0.5637374552249135 -6.374437367610589 -1.490003662433116
H -0.5867379846447924 -6.1047934852048575 -2.992767251600609
O 7.949957770197093 1.895299790549894 8.233786186965801
H 8.433785261272385 2.730102630094488 8.144441154266323
H 8.541294725579087 1.2383859628729734 7.836612707858234
O -10.830828732632956 2.2009031311020566 -1.403868175858647
H -10.839472102369475 2.5972257747995195 -2.288074606027673
H -11.761124833041652 1.9908705799389335 -1.232411366964143
O 2.422192521394349 -2.296726120477737 8.331991198594789
H 1.4817024801407288 -2.342674300498124 8.560758774871626
H 2.6410986340343543 -1.3577856882619783 8.429114434225218
O -2.22088083107149 3.068804940718335 9.832001630050366
H -2.327762557336267 2.540398622149919 10.637191307075373
H -3.0934471848537415 3.034498528001004 9.411986186770463
O 3.8925268667355515 -6.859577956725156 5.435662762165871
H 3.7508556920532214 -6.905372737321002 6.393159223378291
H 4.087305935876706 -7.774787186900208 5.183839166117186
O -2.936759946073858 -2.4146623201383735 3.8769272689615963
H -2.4775113897065877 -2.2854996161643752 4.720357832954095
H -3.1684044670144695 -1.516484885630645 3.596605924145848
C 0.0656441354021915 -14.795676380972232 14.631597700764868
O 0.6993456747260822 -15.185965547435718 13.694093043229891
O -0.5680574039216992 -14.405387214508746 15.56910235829984
O -5.111989457195834 5.554058432461735 6.490709016352818
H -5.174822431629431 5.5985596307657 5.524769568160883
H -5.413633540603667 6.426511359151863 6.7853251767291285
O -11.530001207888935 -5.52898678677994 -14.901141860307337
H -11.32483705337205 -6.470500851160286 -14.799032638513342
H -11.98092568658519 -5.2968102518463445 -14.075476604020782
O 15.844084594520512 7.610896909559851 9.8408778272253
H 16.326519401062484 8.37915949325755 9.50029506661205
H 15.884533335361562 7.716899679222933 10.803213141181995
O -22.477684976352236 0.8494253124985656 -2.8239168234328282
H -23.0968580412927 0.31068173816333544 -2.3087979695119714
H -22.06468178329618 1.4265787563985293 -2.1641561023983655
O 8.794848077369267 -13.755698734926224 15.277386265106161
H 8.782799239755839 -13.740708651491806 14.308573858181683
H 9.646292336057709 -14.164148093169972 15.49458143171159
O 3.1720451573464374 -13.321775964508106 -6.4219352862814585
H 3.6065717581909955 -12.540714837318202 -6.047639272875878
H 3.8958805123663143 -13.952897394766385 -6.551202696683275
O -2.328001890271964 3.842886791828079 7.162253820369296
H -3.048377718870965 4.27960591722716 7.641109151321103
H -1.5459990809052635 4.015163731412663 7.707922407086505
O 18.472129580027904 -2.2010948756960262 7.582067985944679
H 17.591656799146573 -2.1446144060896684 7.982748651288218
H 18.450587650278162 -1.538548762031117 6.875293243307265
O -4.914294494228715 12.920381820852764 0.6568673463354975
H -4.7042282384768335 13.8660830397179 0.6347601137772689
H -4.251036879373922 12.547251388151086 1.2567214626246053
O 3.526929344610286 14.125056416284501 14.003935950946722
H 3.61429074973688 14.492884350571666 13.111726360910643
H 4.424014311098055 13.833548028565096 14.225799348312915
O 8.382183543071648 -17.39984075529238 -12.30053571559804
H 9.195363765012782 -17.293939179321587 -12.816762545345068
H 8.269914597304417 -18.360083622071084 -12.235027968598724
O 12.21864283063524 4.799134508667128 1.5598953474717965
H 12.685859372881193 5.513405460008565 1.1011001125123037
H 12.280260710404356 4.049160949811476 0.9493997764721822
O 2.98150444797707 7.67531916413965 -4.808890215555079
H 3.4349752693364834 7.364003938758575 -5.606646068884623
H 2.1314748219787525 8.005481691328095 -5.1366161450536465
O -0.20453603934139764 -3.594267338397972 7.532328023839234
H -0.5364563909166478 -4.3474538368738465 8.043704925570058
H -0.7627894727812785 -2.854687309222135 7.81576484007321
O 13.098894352455453 5.899860246669748 -1.3414596389584057
H 12.899875136239965 6.273527159877952 -2.2130855601255224
H 13.48484449347561 5.03366125694558 -1.5407176203477477
O -9.894231212971285 7.034535092524528 6.427153560191593
H -9.853483223578378 6.977394853221883 7.393612018332901
H -10.178545200520016 6.149939417102885 6.152166302651416
O -17.26613822652355 6.58621610258238 -4.189256856449743
H -17.167221680241905 6.561821686997383 -3.225624257239869
H -16.39633661118509 6.316887699482306 -4.520722247611731
O 15.338831741404217 5.239355626380265 4.1253935059804645
H 15.56118759917704 5.192652514624823 5.067382916094224
H 16.113922544971345 4.861941332265954 3.6829518249378004
O -10.549568518005026 -9.474338417376291 6.908973907432956
H -10.649248093520924 -10.374237296713515 6.5637010499816615
H -11.33792132703875 -9.345428274006576 7.457466357449393
O 1.2455887222108797 18.687636463101192 4.383617643155356
H 1.6451085618288084 18.33062236786745 3.5762192344028376
H 0.7644999771676426 17.93503266477976 4.759254550879928