194

C -5.0710522388059704 1.0783507462686561 0.47044029850746183
C -3.8153522388059704 0.1782507462686569 0.19534029850746193
C -4.11845223880597 -1.3219492537313435 0.5608402985074619
C -2.96945223880597 -2.3874492537313436 0.7034402985074619
C -2.52015223880597 0.7359507462686565 0.7384402985074618
C -2.20305223880597 0.7852507462686571 2.097440298507462
C -1.5755522388059702 1.205650746268656 -0.18965970149253808
C -0.9533522388059701 1.2695507462686564 2.508640298507462
H -2.91125223880597 0.4298507462686567 2.840840298507462
C -0.32655223880597006 1.6562507462686575 0.21554029850746192
H -1.7850522388059702 1.178550746268657 -1.2573597014925382
C 0.004447761194029898 1.6956507462686563 1.569740298507462
H -0.7158522388059702 1.2676507462686573 3.5705402985074617
H 0.3943477611940298 1.9193507462686572 -0.5551597014925382
C -1.76045223880597 -2.1592492537313435 -0.1734597014925381
C -0.5287522388059701 -1.936549253731343 0.464840298507462
C -1.8068522388059702 -2.121249253731343 -1.5681597014925381
C 0.6114477611940299 -1.614449253731343 -0.2582597014925381
H -0.4544522388059702 -1.954049253731343 1.5506402985074619
C -0.6479522388059701 -1.8270492537313432 -2.2998597014925384
H -2.74345223880597 -2.290549253731343 -2.092259701492538
C 0.5698477611940298 -1.5506492537313434 -1.6506597014925382
H 1.5072477611940298 -1.351949253731343 0.2991402985074618
H -0.7173522388059701 -1.7640492537313435 -3.3840597014925375
C 1.7791477611940298 -1.082849253731343 -2.4255597014925376
H 1.4739477611940297 -0.9102492537313429 -3.464259701492538
H 2.1252477611940295 -0.1337492537313434 -2.0010597014925384
C 1.3965477611940298 2.0964507462686566 1.997440298507462
H 1.51704776119403 1.8448507462686567 3.057640298507462
H 2.1256477611940294 1.5207507462686571 1.4165402985074618
C 3.94864776119403 -1.4275492537313434 -3.522959701492538
H 4.81734776119403 -2.087049253731343 -3.615159701492538
H 3.4305477611940303 -1.3641492537313429 -4.484459701492538
H 4.26984776119403 -0.441449253731343 -3.176459701492538
C 2.60904776119403 -3.4296492537313434 -2.8992597014925376
H 1.9825477611940296 -3.869549253731343 -2.119359701492538
H 2.06294776119403 -3.373349253731343 -3.845759701492538
H 3.5215477611940305 -4.019849253731343 -3.0234597014925377
C 3.7281477611940304 -2.060049253731343 -1.156659701492538
H 3.9048477611940298 -1.032549253731343 -0.8295597014925382
H 3.12924776119403 -2.623249253731343 -0.4404597014925382
H 4.68244776119403 -2.5769492537313434 -1.3005597014925383
C 3.1110477611940297 3.755250746268656 2.588740298507462
H 3.40124776119403 4.809350746268656 2.534540298507462
H 2.9823477611940303 3.461750746268656 3.634840298507462
H 3.86514776119403 3.1392507462686563 2.091540298507462
C 1.99744776119403 3.9574507462686572 0.40494029850746194
H 2.67914776119403 3.230350746268657 -0.04295970149253803
H 1.03214776119403 3.981150746268657 -0.10175970149253821
H 2.4399477611940297 4.958250746268657 0.368240298507462
C 0.7418477611940297 4.4992507462686575 2.475440298507462
H -0.18475223880597014 4.424250746268656 1.901240298507462
H 0.57844776119403 4.189650746268656 3.511940298507462
H 1.1210477611940297 5.524350746268658 2.4432402985074617
N 3.00114776119403 -2.025349253731343 -2.490159701492538
N 1.7831477611940298 3.586450746268657 1.862540298507462
C -3.55075223880597 -3.8435492537313434 0.6444402985074619
H -2.62515223880597 -2.2736492537313433 1.7424402985074618
H -4.67195223880597 -1.3478492537313436 1.5102402985074619
H -4.83415223880597 -1.6757492537313432 -0.1945597014925382
H -3.7169522388059697 0.17335074626865676 -0.900559701492538
H -3.9132522388059705 -4.043149253731343 -0.34225970149253815
H -4.35435223880597 -3.9354492537313432 1.3449402985074619
H -2.78115223880597 -4.545049253731343 0.8904402985074619
H -5.24235223880597 1.138950746268657 1.5249402985074618
H -5.92805223880597 0.6501507462686567 -0.006059701492538094
H -4.89895223880597 2.059650746268657 0.08004029850746197
C -1.9441552035939202 -1.9912416896159595 4.4345590824292
O -3.000899607232681 -2.1053383110154646 5.0362639311410735
O -1.2815835469090495 -2.928108995388536 3.9742223413012523
O -1.3737812003034175 -0.9212391703281444 4.1928640483716215
O 2.819447065364325 -2.776330800038304 2.2125559166594972
H 2.3637328085350395 -3.418429573764459 2.7773576852490636
H 3.0924220712177686 -2.0774582575862652 2.8257636790744356
O -2.816620363279687 -0.027930115713657777 -6.099247586473722
H -2.1848355772825876 -0.30683379786251375 -5.419521114158271
H -2.7406690712320554 -0.7099706200633897 -6.783363143936538
O -3.739329266059158 3.3306827795103136 3.0093477165178797
H -4.380987303514573 3.1816767706245694 2.2986863842471497
H -3.236320042864745 4.103769772501362 2.7122279309945845
O 4.598738515054303 5.810634521767605 8.459078082622824
H 4.879790271554285 5.451851501180553 7.603945337835963
H 4.672723853289381 5.0576936893048465 9.064526855713106
O 3.0702425928007506 8.302471266283497 -2.640456925836914
H 2.1715787430036575 8.002115009476153 -2.437585634214492
H 2.953647349393133 8.894120217507028 -3.3989547913782827
O 0.603574113612126 8.26835393286758 -5.390560856428115
H 1.2261941405248802 8.873148236224905 -5.821299187220363
H 0.07260718826175427 8.845394663551962 -4.821298119534855
O 8.617365256680344 0.9260133132946441 6.625740727888771
H 8.530803489848076 0.8109043950425419 5.667500489555134
H 8.177407444524693 0.146010646439533 6.995868959076459
O -7.010692882010952 -6.347335454720013 -3.5719531663624005
H -7.347654985224038 -7.176945588735433 -3.201587234563684
H -6.962717962150265 -5.752584436737839 -2.8084536064584484
O -3.0453419260559818 4.390256245109142 11.200978862239241
H -3.1922512063661856 4.765187040284419 10.31960951906467
H -2.4751676574674626 5.0395498569146255 11.639477497822227
O -0.6306137819078754 10.290138276082443 0.5787330995217088
H -0.20641821476748157 9.637619621915947 0.0014594350581500493
H -1.3565108280028104 9.79957504160756 0.9927175626989988
O 0.1461916391659681 5.265975707417452 9.207438623390601
H 0.08931613758771828 5.424653871505617 8.253209209433015
H -0.7783329096647962 5.246479816633222 9.496983461285874
O -5.411660647843431 2.0112933185081374 -5.118034098767981
H -5.801566804062961 1.4310093322284492 -4.447056422902779
H -4.456689956783 1.9104732421423694 -4.9883104088838195
O -8.171578306374663 3.5180263798772873 3.842372946056333
H -8.076275695325394 3.761605137770242 4.775407863908026
H -7.951423327634936 4.331677646247702 3.3643924586199407
O -4.771797634629545 -3.6780001901354122 5.499498772811227
H -5.235605668115882 -3.953588738288791 4.694576157213769
H -4.109536495957 -4.371834063764206 5.637218358598457
O 5.783733185473232 4.694484429701062 -1.0703696535283433
H 5.723694185994277 5.481881973029305 -0.5087934928856264
H 5.4727082011583335 4.999938078633017 -1.935773300265558
O -0.5570389131455991 -7.515437508755746 -1.6123000706671278
H -0.6472223475059415 -6.936168973722425 -2.383845448067137
H -1.4661929112690122 -7.78742164126229 -1.4162756240772305
O 0.39861781434597776 -2.918949767967049 7.933085627514824
H 0.2914207618454986 -2.8374199645255747 6.973487253200858
H 0.7320044674717521 -3.820507535883067 8.055596341037694
O -6.520517499525255 5.252752360505074 0.37477414652613494
H -6.584256290690952 5.319600322875657 -0.589816996563847
H -5.582546131440946 5.069946982295911 0.5352542096238764
O -0.18009491203238603 10.602776298043851 3.59200762057618
H -0.48806279962062504 11.23925820945778 2.9294263700436045
H -0.9542607083580075 10.043935598963532 3.7573144176261892
O -6.199069517725875 8.7018344218204 3.5769586186593325
H -6.569194304602529 8.764068561089855 4.470324115501977
H -6.398500859223512 9.563212532863067 3.180452837938522
C 2.883704790703778 -1.34391427716877 9.533002732386791
O 3.7872298239438216 -1.8911560798148654 10.09601887873184
O 1.9801797574637336 -0.7966724745226744 8.96998658604174
O -1.8843053320119636 3.3956738800395203 -15.128516245801492
H -2.320610943675036 4.162627671401378 -15.528999269220698
H -2.593150688816971 2.7402844811599216 -15.045060028104903
O 11.357391723487906 -7.023956555648564 -14.417764471659758
H 10.692026630436157 -7.586160968204388 -13.993284968796548
H 11.381022832449984 -6.229739852027802 -13.863126443141166
O 13.764503795233832 -18.205070715921746 0.2736548603496516
H 13.453010900934425 -19.038914396753 0.656596435056243
H 13.16761373128608 -18.053697603518717 -0.4745231777548282
O -2.9443491439681027 6.721986272563298 7.787060644847279
H -2.935337398841318 6.763509094859764 8.755131923513424
H -2.7144104214330738 7.622233180046022 7.512023131502735
O 9.007590406828724 -17.025844948070343 6.292389875904532
H 9.182023129586954 -17.228322721724716 7.223809938661995
H 9.307005198632 -16.109751827026393 6.191960197395851
O 5.7838849857012775 -6.524883508613209 14.583031274550494
H 6.16267680429456 -6.737998031737902 13.716967584571442
H 6.195409376397814 -5.6793384725699045 14.816832925922704
O -16.737693551941238 7.4946030817203155 -0.1201555606324245
H -17.081006524604685 7.352467953522673 -1.015086376412743
H -15.9303697096983 6.959471764414043 -0.09143916663610074
O -0.29539447830374366 9.575150358218737 -9.964278659441554
H -0.19533134168996352 10.247256462823554 -10.65509564659803
H 0.46635289420987946 9.72127786070509 -9.38346058311671
O -4.2718743526689344 7.730038851880348 14.701741405246553
H -3.9728499216163966 6.80974705216053 14.752876030523044
H -4.658741825340846 7.801579748192134 13.816203487908535
O 7.798636774566463 -5.361570634676173 6.203908682253108
H 7.70438280118524 -5.3595927378004955 7.168315045424673
H 7.524095039665258 -4.470514504187669 5.940075870767712
O -15.934006282179997 1.5576067060975607 14.163533809230406
H -16.72741800678834 2.1133293459332574 14.138284260164017
H -15.955281728542566 1.159231478952444 15.046600328853446
O -9.581618524400564 -12.888930545476555 13.281798848928178
H -8.672549992794059 -12.652752494774095 13.043509759565744
H -9.87780983417801 -12.150754410475187 13.835268492203003
O 4.7245110054384405 3.893707952304804 12.888548623679878
H 4.69211813977195 3.391669549302858 12.060372615173735
H 5.452319375643118 4.519284469358577 12.75471685663303
O -1.3278944653471418 -2.0504792257757973 16.738628459849195
H -1.6258178589880778 -2.3733953587200856 15.874953648646636
H -1.4191450858928871 -2.819995330693042 17.320419000183954
O 10.996815119790796 8.584147467230196 -14.7661710552182
H 10.989963403811396 8.533418857974379 -13.798520798621784
H 10.42110171160469 9.33776099173383 -14.965124998682377
O -9.65707374710762 3.781829332470041 12.044359054192345
H -9.580676028049757 3.816683573434191 13.009716981237837
H -9.167506143706126 2.982235455302482 11.79954251554377
O 8.757834136994077 8.717616198949088 -10.97442666019655
H 9.700608663123433 8.819662243490953 -10.775102415371864
H 8.334567494711663 8.703124970565492 -10.102877867454051
O -6.855711807032125 18.371648339763144 5.562497435113387
H -6.547923152888122 18.96427108223213 6.2646596573873845
H -6.653366233497358 18.851827897431452 4.745523870321754
O -16.496497396731133 5.869675980663988 -14.368363708914003
H -16.143049755093333 5.945395824628915 -15.26742356607069
H -17.457376860435794 5.8740859958748 -14.493476267422285
O 7.910961471587617 15.71075528676293 1.5138719885836105
H 7.691978573790046 15.25268734513505 2.339212892831653
H 7.28036546807572 15.350993979631397 0.8720913200169771