194

C -5.0710522388059704 1.0783507462686561 0.47044029850746183
C -3.8153522388059704 0.1782507462686569 0.19534029850746193
C -4.11845223880597 -1.3219492537313435 0.5608402985074619
C -2.96945223880597 -2.3874492537313436 0.7034402985074619
C -2.52015223880597 0.7359507462686565 0.7384402985074618
C -2.20305223880597 0.7852507462686571 2.097440298507462
C -1.5755522388059702 1.205650746268656 -0.18965970149253808
C -0.9533522388059701 1.2695507462686564 2.508640298507462
H -2.91125223880597 0.4298507462686567 2.840840298507462
C -0.32655223880597006 1.6562507462686575 0.21554029850746192
H -1.7850522388059702 1.178550746268657 -1.2573597014925382
C 0.004447761194029898 1.6956507462686563 1.569740298507462
H -0.7158522388059702 1.2676507462686573 3.5705402985074617
H 0.3943477611940298 1.9193507462686572 -0.5551597014925382
C -1.76045223880597 -2.1592492537313435 -0.1734597014925381
C -0.5287522388059701 -1.936549253731343 0.464840298507462
C -1.8068522388059702 -2.121249253731343 -1.5681597014925381
C 0.6114477611940299 -1.614449253731343 -0.2582597014925381
H -0.4544522388059702 -1.954049253731343 1.5506402985074619
C -0.6479522388059701 -1.8270492537313432 -2.2998597014925384
H -2.74345223880597 -2.290549253731343 -2.092259701492538
C 0.5698477611940298 -1.5506492537313434 -1.6506597014925382
H 1.5072477611940298 -1.351949253731343 0.2991402985074618
H -0.7173522388059701 -1.7640492537313435 -3.3840597014925375
C 1.7791477611940298 -1.082849253731343 -2.4255597014925376
H 1.4739477611940297 -0.9102492537313429 -3.464259701492538
H 2.1252477611940295 -0.1337492537313434 -2.0010597014925384
C 1.3965477611940298 2.0964507462686566 1.997440298507462
H 1.51704776119403 1.8448507462686567 3.057640298507462
H 2.1256477611940294 1.5207507462686571 1.4165402985074618
C 3.94864776119403 -1.4275492537313434 -3.522959701492538
H 4.81734776119403 -2.087049253731343 -3.615159701492538
H 3.4305477611940303 -1.3641492537313429 -4.484459701492538
H 4.26984776119403 -0.441449253731343 -3.176459701492538
C 2.60904776119403 -3.4296492537313434 -2.8992597014925376
H 1.9825477611940296 -3.869549253731343 -2.119359701492538
H 2.06294776119403 -3.373349253731343 -3.845759701492538
H 3.5215477611940305 -4.019849253731343 -3.0234597014925377
C 3.7281477611940304 -2.060049253731343 -1.156659701492538
H 3.9048477611940298 -1.032549253731343 -0.8295597014925382
H 3.12924776119403 -2.623249253731343 -0.4404597014925382
H 4.68244776119403 -2.5769492537313434 -1.3005597014925383
C 3.1110477611940297 3.755250746268656 2.588740298507462
H 3.40124776119403 4.809350746268656 2.534540298507462
H 2.9823477611940303 3.461750746268656 3.634840298507462
H 3.86514776119403 3.1392507462686563 2.091540298507462
C 1.99744776119403 3.9574507462686572 0.40494029850746194
H 2.67914776119403 3.230350746268657 -0.04295970149253803
H 1.03214776119403 3.981150746268657 -0.10175970149253821
H 2.4399477611940297 4.958250746268657 0.368240298507462
C 0.7418477611940297 4.4992507462686575 2.475440298507462
H -0.18475223880597014 4.424250746268656 1.901240298507462
H 0.57844776119403 4.189650746268656 3.511940298507462
H 1.1210477611940297 5.524350746268658 2.4432402985074617
N 3.00114776119403 -2.025349253731343 -2.490159701492538
N 1.7831477611940298 3.586450746268657 1.862540298507462
C -3.55075223880597 -3.8435492537313434 0.6444402985074619
H -2.62515223880597 -2.2736492537313433 1.7424402985074618
H -4.67195223880597 -1.3478492537313436 1.5102402985074619
H -4.83415223880597 -1.6757492537313432 -0.1945597014925382
H -3.7169522388059697 0.17335074626865676 -0.900559701492538
H -3.9132522388059705 -4.043149253731343 -0.34225970149253815
H -4.35435223880597 -3.9354492537313432 1.3449402985074619
H -2.78115223880597 -4.545049253731343 0.8904402985074619
H -5.24235223880597 1.138950746268657 1.5249402985074618
H -5.92805223880597 0.6501507462686567 -0.006059701492538094
H -4.89895223880597 2.059650746268657 0.08004029850746197
C 4.206337557707122 0.2733217830514654 2.070321649216204
O 3.873179470532329 1.0196671000455197 2.977928312562765
O 3.529595490600564 -0.6653445850605895 1.6349401061029618
O 5.271800826242164 0.3412040389456481 1.4467605799235963
O -7.457522862735 2.710551479280697 -7.986264974729954
H -7.779561508465525 2.658747093249314 -7.073809620674775
H -7.667100775291667 1.8406576334161375 -8.35818397101188
O -2.517978599440499 6.381443527132188 5.78506413961218
H -3.300722182752681 6.465397114249608 6.350070011169038
H -1.7746767718886372 6.459135972481707 6.401852775527008
O -8.152583596250478 2.794975124827116 0.36461793847306856
H -9.004467287880006 2.7224232562632458 -0.09144977492434281
H -8.18657357595688 2.0974424733877184 1.0363729725111328
O 2.969159206675157 9.457593512957455 0.12469976901454283
H 2.766243370605366 9.902408042602513 0.9613194882351359
H 2.2370903401753783 9.70965459900914 -0.4579685138876375
O -4.547533695853669 -4.971831369871981 -7.447951503463451
H -5.182897654375689 -4.242675387895891 -7.50804768520334
H -3.783357704526902 -4.658782868497815 -7.954900844489891
O -1.7272267073075807 -2.6487217360795006 5.654812040763264
H -2.2945987436318718 -3.019939684104025 4.962530620846703
H -1.5005778643116154 -3.412581341192704 6.2062744147697675
O 3.09614470989462 -5.562747469692835 10.614108535676873
H 2.546550256485402 -5.327568730902947 11.376738363642591
H 2.8292713910950242 -4.930973750331266 9.929563034240381
O 0.9023585397729836 3.2971920190788753 5.881230483920786
H 0.8264627537266889 3.2870100853647037 6.847203317279082
H 0.017751733461459196 3.553065621234547 5.579632336964931
O -8.84531182280143 -1.6250547366875856 -2.331766285491811
H -9.464263922576745 -0.9785469816903163 -2.7031062615408774
H -7.976473048059843 -1.3134795562742716 -2.6267273587810633
O -2.561702264464248 3.9813069632657445 -7.626586033243721
H -1.9198306327120012 3.57399432254738 -8.227472526653866
H -2.217137039575142 3.7788504085069543 -6.743835732460811
O -5.763638006424606 2.664619641788214 -5.949965594758121
H -5.175064885581563 2.948232817801459 -5.234345161348927
H -5.44592262929805 3.15540986613388 -6.722716420784246
O 1.3413806344121797 -10.737168447510795 -4.195354161456105
H 1.0649939474855454 -11.193190482437732 -5.004441091180481
H 1.765597447591019 -11.431218182486838 -3.6687641832984546
O -1.1587359143400233 -4.460217587181902 -3.508202052208931
H -0.6559782547775197 -3.7617943085006096 -3.95363107736031
H -0.4817434793319286 -5.096053412867657 -3.2318761757219043
O 6.2003368943103085 2.0565595843208495 -5.485050886105819
H 6.242386284813092 2.0317319953401753 -4.517278807316732
H 5.850410300408495 2.9385410411963493 -5.68157577742507
O 2.5495562201192903 4.000769445533073 9.04408748340324
H 1.6970838034371984 4.23208479539778 8.64565135977341
H 2.9895108299160644 4.8551892838447515 9.168057744022526
O -1.0743164985426592 -0.17150162558835502 -5.540486988525831
H -0.5217290773491643 -0.2497928318191207 -6.33262648751932
H -1.866546960958859 -0.686193761710701 -5.7559512401631485
O 3.8574304122917553 2.317787210849952 -6.420341985402712
H 2.9065315144616055 2.271050898779375 -6.239858301543343
H 4.014047099244433 3.255237312007525 -6.609075833738465
O 6.549565537081152 7.023608507337641 7.15698909885372
H 6.547860180119931 6.994440956123867 8.125551798225231
H 6.0973062010683385 7.854480804492783 6.947049433451045
O -5.767345982890152 1.9957352949423757 5.019661917181925
H -4.945715735660187 2.0125854220218464 5.533088802876696
H -5.894561512073617 2.9180812773813125 4.7512293518823245
O 9.062458071154515 -0.40113487000923453 -1.9477138756176424
H 9.316638697830639 -1.260707282266659 -2.3158101048953768
H 8.467313843022492 -0.6262275120569674 -1.2168933815720067
C -10.25202991682269 5.361603432995864 0.38612331172768766
O -9.56078091769834 6.237544998524089 0.8193893411940523
O -10.943278915947038 4.485661867467639 -0.0471427177386774
O 10.801317524778455 -10.733595546735085 -9.008642767809164
H 10.676917942904355 -10.102312452491809 -9.733193494709761
H 11.203021657892906 -10.204252344893968 -8.303382880672967
O 9.469428415056607 -1.0000511584639127 13.578825476548083
H 9.739319743438204 -1.163649902593435 14.49499220738023
H 9.12189151971831 -1.854191244431644 13.28112635961682
O -9.015815313473242 1.77229211724842 10.469042921925812
H -9.136992207833256 2.000493148640496 9.535122258033608
H -8.19606934116665 2.225947095121065 10.716380032441984
O -5.1244767818468295 17.919893050016196 9.46077563442546
H -5.112163022451174 18.82458360802338 9.113859617957221
H -4.639235458510166 17.98330175749635 10.297126122105222
O -5.036134990136512 -17.962816938322266 -7.5598362075349606
H -5.129092702587576 -17.773748308345834 -8.505658217087868
H -4.100623137611956 -17.78846364111027 -7.377133044351127
O 0.052215635523613635 1.8370489404175228 10.33268420440185
H -0.6380781756784004 2.5110092814058613 10.241913780303024
H 0.2039863504216335 1.7846783075020793 11.288291294793806
O -10.27747969932367 -2.094135993689621 -7.013453520667822
H -9.59017984094081 -2.47627866865062 -6.447279309368373
H -9.937814948216054 -1.2132853589759551 -7.231838411352896
O -9.733521753547901 -2.593096802692507 5.546541390366925
H -9.922963581952768 -2.8382267345926406 4.628396267286016
H -8.77801998495691 -2.7292689508778323 5.632770507131969
O -17.061235460000802 -1.2336844404982856 -3.7418345005707367
H -16.13944189909574 -0.9375083388189467 -3.781124509071635
H -17.25447765602659 -1.2721646465087169 -2.7930781189213034
O 3.1389532169030057 -12.615160463700775 -10.955319438237279
H 3.7578651980050783 -13.326496331467652 -11.17873966958765
H 3.4690058892338347 -11.852580214566482 -11.453815718481735
O -6.6589652634383985 -5.035447011262486 18.472478262730917
H -7.255166781563885 -5.198555286387415 17.726216380232128
H -6.119913273281458 -5.83918245505264 18.52140915893451
O -5.523862463648065 2.5822195958749585 17.598721646510498
H -4.769270776021126 2.707126390431818 17.003778763085663
H -5.117162612157205 2.453856543113141 18.468825147125784
O -7.073848725109324 -1.0123068079714044 -5.585810948953463
H -6.682817521664168 -0.8285686407443431 -4.7184573643432
H -8.00313428640759 -1.2027374882675619 -5.388006889681396
O 11.872305121752905 8.137180641939324 -9.577538677191136
H 12.29456045009101 8.307842318023223 -10.432841189116779
H 12.616174560191224 7.98503565495356 -8.975482113575588
O 2.5241568998729154 11.710632642611731 3.3626596424950574
H 1.7737861983399021 12.300959969277804 3.197055250729187
H 2.8662155906004796 11.51301019993574 2.477841487986167
O 1.7001136854431125 -8.720263054375616 13.03203938513482
H 2.6609995481962017 -8.597865965525967 13.005873218002737
H 1.3465710824275092 -7.835443366911289 12.85579043385147
O 8.098618592672533 2.9798440178592553 5.75973072312919
H 7.374374438690392 2.591497288051774 5.246286880269497
H 7.830800519755474 3.903187987583915 5.880856020619428
O -17.24886066389902 13.486246097431932 2.4874719724136667
H -17.12137278674914 12.547225806821276 2.2850983281283996
H -16.490765248925182 13.920935413283635 2.068785353592354
O -10.187109813361687 14.980850406542622 1.697368423161627
H -10.288714922301377 14.485742584343111 2.5241162705336144
H -9.49964611256112 15.633501242657118 1.898372130840457
O 9.588810674077903 -1.2322447195504171 7.972789199801674
H 9.482838878215215 -1.086215239825902 7.020732097295198
H 10.002324017304883 -2.106656381788743 8.030865909547101