194

C -5.0710522388059704 1.0783507462686561 0.47044029850746183
C -3.8153522388059704 0.1782507462686569 0.19534029850746193
C -4.11845223880597 -1.3219492537313435 0.5608402985074619
C -2.96945223880597 -2.3874492537313436 0.7034402985074619
C -2.52015223880597 0.7359507462686565 0.7384402985074618
C -2.20305223880597 0.7852507462686571 2.097440298507462
C -1.5755522388059702 1.205650746268656 -0.18965970149253808
C -0.9533522388059701 1.2695507462686564 2.508640298507462
H -2.91125223880597 0.4298507462686567 2.840840298507462
C -0.32655223880597006 1.6562507462686575 0.21554029850746192
H -1.7850522388059702 1.178550746268657 -1.2573597014925382
C 0.004447761194029898 1.6956507462686563 1.569740298507462
H -0.7158522388059702 1.2676507462686573 3.5705402985074617
H 0.3943477611940298 1.9193507462686572 -0.5551597014925382
C -1.76045223880597 -2.1592492537313435 -0.1734597014925381
C -0.5287522388059701 -1.936549253731343 0.464840298507462
C -1.8068522388059702 -2.121249253731343 -1.5681597014925381
C 0.6114477611940299 -1.614449253731343 -0.2582597014925381
H -0.4544522388059702 -1.954049253731343 1.5506402985074619
C -0.6479522388059701 -1.8270492537313432 -2.2998597014925384
H -2.74345223880597 -2.290549253731343 -2.092259701492538
C 0.5698477611940298 -1.5506492537313434 -1.6506597014925382
H 1.5072477611940298 -1.351949253731343 0.2991402985074618
H -0.7173522388059701 -1.7640492537313435 -3.3840597014925375
C 1.7791477611940298 -1.082849253731343 -2.4255597014925376
H 1.4739477611940297 -0.9102492537313429 -3.464259701492538
H 2.1252477611940295 -0.1337492537313434 -2.0010597014925384
C 1.3965477611940298 2.0964507462686566 1.997440298507462
H 1.51704776119403 1.8448507462686567 3.057640298507462
H 2.1256477611940294 1.5207507462686571 1.4165402985074618
C 3.94864776119403 -1.4275492537313434 -3.522959701492538
H 4.81734776119403 -2.087049253731343 -3.615159701492538
H 3.4305477611940303 -1.3641492537313429 -4.484459701492538
H 4.26984776119403 -0.441449253731343 -3.176459701492538
C 2.60904776119403 -3.4296492537313434 -2.8992597014925376
H 1.9825477611940296 -3.869549253731343 -2.119359701492538
H 2.06294776119403 -3.373349253731343 -3.845759701492538
H 3.5215477611940305 -4.019849253731343 -3.0234597014925377
C 3.7281477611940304 -2.060049253731343 -1.156659701492538
H 3.9048477611940298 -1.032549253731343 -0.8295597014925382
H 3.12924776119403 -2.623249253731343 -0.4404597014925382
H 4.68244776119403 -2.5769492537313434 -1.3005597014925383
C 3.1110477611940297 3.755250746268656 2.588740298507462
H 3.40124776119403 4.809350746268656 2.534540298507462
H 2.9823477611940303 3.461750746268656 3.634840298507462
H 3.86514776119403 3.1392507462686563 2.091540298507462
C 1.99744776119403 3.9574507462686572 0.40494029850746194
H 2.67914776119403 3.230350746268657 -0.04295970149253803
H 1.03214776119403 3.981150746268657 -0.10175970149253821
H 2.4399477611940297 4.958250746268657 0.368240298507462
C 0.7418477611940297 4.4992507462686575 2.475440298507462
H -0.18475223880597014 4.424250746268656 1.901240298507462
H 0.57844776119403 4.189650746268656 3.511940298507462
H 1.1210477611940297 5.524350746268658 2.4432402985074617
N 3.00114776119403 -2.025349253731343 -2.490159701492538
N 1.7831477611940298 3.586450746268657 1.862540298507462
C -3.55075223880597 -3.8435492537313434 0.6444402985074619
H -2.62515223880597 -2.2736492537313433 1.7424402985074618
H -4.67195223880597 -1.3478492537313436 1.5102402985074619
H -4.83415223880597 -1.6757492537313432 -0.1945597014925382
H -3.7169522388059697 0.17335074626865676 -0.900559701492538
H -3.9132522388059705 -4.043149253731343 -0.34225970149253815
H -4.35435223880597 -3.9354492537313432 1.3449402985074619
H -2.78115223880597 -4.545049253731343 0.8904402985074619
H -5.24235223880597 1.138950746268657 1.5249402985074618
H -5.92805223880597 0.6501507462686567 -0.006059701492538094
H -4.89895223880597 2.059650746268657 0.08004029850746197
C -0.9296818022207562 -4.2117851418993295 -1.7423130725494955
O -0.390083094365824 -3.714345434269216 -0.7660126729008246
O -0.4090208937888984 -4.3394417465751545 -2.856425936586866
O -2.0799260081756756 -4.664513783890198 -1.7672816085146135
O -5.045821143114095 -1.2948189021517393 -5.342914106768994
H -5.018841248499214 -1.2977444840353864 -4.374290917310259
H -4.123400546076844 -1.150561723509508 -5.602321224773928
O 6.341922439115044 -4.602204576162922 3.6845430696408745
H 6.625482955508117 -5.189454781875142 2.9678157949164854
H 5.9227733760761225 -5.198118868141829 4.323418772629235
O -10.110123814001618 -3.689477494863179 -1.8576769804695816
H -9.966619114500196 -2.971724763501643 -1.2226929060676621
H -9.805381006911592 -3.3208430769083788 -2.7004120703560863
O 5.925433022503231 -2.2924763769128838 2.6249114982736192
H 5.9570573660851425 -1.8436734565958712 3.4831324468107283
H 5.021468232878471 -2.136802247583305 2.312541255010691
O -12.276705345905906 1.3240751720346262 -1.0764582072323474
H -11.681961429671471 1.090624507097205 -0.34793379580716977
H -11.678454058544627 1.5252662648108397 -1.8116993143924978
O -3.407707258496071 8.176427588159509 -1.1621852775217802
H -3.616114313096422 8.8904107708567 -0.5410879652442313
H -4.161472416167703 8.16841801796757 -1.7710661182169027
O 5.43536752660425 -8.379842312697493 -2.772111255891168
H 5.268342533973254 -7.53153391572308 -3.2096531080142734
H 5.167469197605349 -9.039152022213909 -3.429760962465249
O -4.16182870094165 4.4966177369221345 -2.056218764786482
H -5.120708290117665 4.626172851423465 -2.0039429322422952
H -3.9252223117803413 4.1454951567283365 -1.1846154751035578
O 8.487594187838468 3.3952169204593425 -4.553587426294609
H 7.65838242321003 3.367797263589547 -5.0542104069087
H 9.093909791549265 2.8478253552855506 -5.074841498099712
O 1.0374454840262244 -4.1474063249797055 8.29835841958133
H 0.1442950842950692 -4.002592688752616 7.951546177694215
H 1.5598297922271982 -4.371295171649719 7.513533366985429
O -4.831345906810679 -2.566192606331443 -9.61764162286843
H -4.571824393130239 -2.2346001089559757 -10.490374317638896
H -3.9957591114869713 -2.849212361918738 -9.216821875690272
O 9.394798853142461 2.9889470615706655 -1.7331497690906446
H 9.571332129087022 3.330289341328036 -2.622693926192654
H 8.532045316419701 2.5555827507083038 -1.8156946250367278
O -0.08175878966030448 7.206460927432592 0.7100243317509974
H -0.03867336481982342 7.215469341771076 1.678027354234617
H -1.0314775128291327 7.193510741983378 0.5181165834462473
O -7.848711020043311 -1.5269794340278278 0.2592050961777823
H -8.390483974966683 -0.7345315244823072 0.1270092835718888
H -8.446616765755692 -2.2580969522379597 0.042553675433822935
O 7.293965477864322 0.7637414409473049 -1.8950667804629886
H 7.24074842205167 0.08347773223609511 -2.583090463544541
H 6.410560921292477 0.7635186100568623 -1.4968730034215856
O -1.0695954082300112 4.4882069555034025 8.181814517813795
H -1.2184793158729734 5.160741078198639 7.500273035029722
H -1.709716030606351 3.792804907504987 7.968217877512188
O -1.1634110796023849 8.310194391597776 -3.127877126267335
H -0.644896612925971 7.8972278994304155 -3.834678923869931
H -1.742890529676302 8.930848058005317 -3.5947331400627096
O 4.625661056964974 5.9333158673533815 4.754733860859238
H 4.206921601728186 6.074116289215487 3.892295534524275
H 5.335977472134083 5.30076206122354 4.569563082948795
O 1.281506433845648 -1.4084950318607932 -6.9048442769223115
H 1.1097259827990382 -0.4713742743932572 -7.081659206896271
H 2.148653950332414 -1.4099675928215896 -6.472392013065307
O -6.80898154600855 6.2236603704920315 -3.0595991102637043
H -6.947443211290551 7.005206330185475 -3.615460277313708
H -6.4977107137414265 6.587709872694338 -2.217256915412952
C -7.4625411226026515 -14.621647566369914 -0.719654388114944
O -7.63376664990083 -14.60322075247502 0.4648963826969888
O -7.291315595304473 -14.640074380264808 -1.904205158926877
O -0.33836055697038914 6.652905550389031 -5.8763223777915705
H -0.4143369775112258 6.996809469112466 -6.779054361886777
H 0.5561593437179249 6.9067720280308915 -5.603654258822223
O -8.838062979948665 11.016698314623321 1.3230416308697286
H -8.919234267885983 11.620664838149487 0.5696473002736497
H -7.950154212966934 11.192215956544143 1.669124746886005
O -11.013197265021493 0.9559591748782037 14.406877739734833
H -11.505353271364307 0.38154877306760826 15.012519971264707
H -10.366822446412318 1.3984275624930982 14.977301498119273
O 10.040469225673156 5.735799507619452 12.801768883765524
H 10.266631230270086 5.315861905617478 13.645255999850608
H 9.466441387545334 6.474425273306773 13.054525611899749
O 9.900419931441391 -9.594310194695453 7.4565225509209085
H 9.095479558034802 -10.115466008013463 7.595931913608299
H 10.105442699874693 -9.240757303154965 8.335116860945336
O 8.288710022894257 11.63359923705763 10.659014640100752
H 7.753013144011442 12.097069770965664 11.320219052558967
H 7.766074406754202 11.700356203958226 9.845775767190622
O -12.02304268101544 -4.08485433439445 4.83115043999919
H -11.184052672687281 -3.865026525769152 5.263283356334565
H -12.000105398917631 -5.050422659848673 4.752960707492342
O 2.314571656817321 0.9821704286892665 5.646092818145191
H 3.1017166127599056 0.7313614601407088 6.15251658983226
H 2.420617579141845 0.5166696979550323 4.802869670725581
O -14.278637793343556 1.942181553706833 10.43742648974927
H -14.244963652905565 2.0198707417225785 9.472129748207468
H -13.740039325716776 1.159567609114644 10.628185627669149
O -12.838893949611961 -1.568712188493703 -4.236929198952126
H -13.482101141135054 -1.151226534864529 -4.829345939673384
H -11.98915605457748 -1.4364976396969524 -4.683501440732601
O -2.54675779473137 -15.185040341770733 -7.878764668636074
H -1.9717690167102733 -14.7345654477405 -7.242032674859842
H -3.15580761234084 -14.492115456616716 -8.175202465659602
O 6.991035675428402 -9.853191989000944 -8.150367637684782
H 6.9483417884955605 -9.563353095223798 -7.2267129378252495
H 7.910611380149938 -9.685788255351717 -8.405942396896624
O 14.8607249419338 -2.107932051045811 -4.276957815044663
H 14.397664055699225 -2.0561611007344767 -3.4273333443262666
H 15.281113800392239 -2.9808576237290834 -4.261592381774187
O -2.1799961609391056 -14.220406228959366 -13.890412337471322
H -2.0974909403395596 -14.12397222938185 -14.851068742852197
H -1.50541230445722 -13.621666262263238 -13.536280981679793
O -17.651543572367956 -3.3090172167480523 -4.112743535488793
H -17.10956514035498 -3.278001579690053 -4.915404588730226
H -17.329124298596852 -4.092674254982577 -3.642754809425705
O -7.732420097078864 -0.3404473223497053 17.524595284332253
H -8.573257032962013 -0.7252650636226541 17.814208664817727
H -7.8502528701940415 0.6112234205909104 17.663879809355095
O 1.6791132840195213 -12.370632779921676 -3.3046111249385386
H 1.493892421563758 -11.605297603205361 -2.7398787491252232
H 1.661634657084213 -13.122277953112413 -2.6933125272634553
O 1.2464342069804082 -10.332175518151665 9.874019224531668
H 1.554513498371934 -9.954355550456754 10.711459717418604
H 0.2934254883849312 -10.447689962920693 10.005900760884224
O -2.332133969959641 4.107887987174696 -18.75500481420796
H -2.8177233860459587 4.5438940201966584 -18.038716453941372
H -2.2706042244976476 3.1844640563701994 -18.46783887134399
O -2.326968831105182 9.641252303206853 -8.663478991430136
H -1.8273862851731533 9.128758195113466 -8.010229861411855
H -2.4581843520678195 10.500869904270496 -8.235925472791719