194

C -5.0710522388059704 1.0783507462686561 0.47044029850746183
C -3.8153522388059704 0.1782507462686569 0.19534029850746193
C -4.11845223880597 -1.3219492537313435 0.5608402985074619
C -2.96945223880597 -2.3874492537313436 0.7034402985074619
C -2.52015223880597 0.7359507462686565 0.7384402985074618
C -2.20305223880597 0.7852507462686571 2.097440298507462
C -1.5755522388059702 1.205650746268656 -0.18965970149253808
C -0.9533522388059701 1.2695507462686564 2.508640298507462
H -2.91125223880597 0.4298507462686567 2.840840298507462
C -0.32655223880597006 1.6562507462686575 0.21554029850746192
H -1.7850522388059702 1.178550746268657 -1.2573597014925382
C 0.004447761194029898 1.6956507462686563 1.569740298507462
H -0.7158522388059702 1.2676507462686573 3.5705402985074617
H 0.3943477611940298 1.9193507462686572 -0.5551597014925382
C -1.76045223880597 -2.1592492537313435 -0.1734597014925381
C -0.5287522388059701 -1.936549253731343 0.464840298507462
C -1.8068522388059702 -2.121249253731343 -1.5681597014925381
C 0.6114477611940299 -1.614449253731343 -0.2582597014925381
H -0.4544522388059702 -1.954049253731343 1.5506402985074619
C -0.6479522388059701 -1.8270492537313432 -2.2998597014925384
H -2.74345223880597 -2.290549253731343 -2.092259701492538
C 0.5698477611940298 -1.5506492537313434 -1.6506597014925382
H 1.5072477611940298 -1.351949253731343 0.2991402985074618
H -0.7173522388059701 -1.7640492537313435 -3.3840597014925375
C 1.7791477611940298 -1.082849253731343 -2.4255597014925376
H 1.4739477611940297 -0.9102492537313429 -3.464259701492538
H 2.1252477611940295 -0.1337492537313434 -2.0010597014925384
C 1.3965477611940298 2.0964507462686566 1.997440298507462
H 1.51704776119403 1.8448507462686567 3.057640298507462
H 2.1256477611940294 1.5207507462686571 1.4165402985074618
C 3.94864776119403 -1.4275492537313434 -3.522959701492538
H 4.81734776119403 -2.087049253731343 -3.615159701492538
H 3.4305477611940303 -1.3641492537313429 -4.484459701492538
H 4.26984776119403 -0.441449253731343 -3.176459701492538
C 2.60904776119403 -3.4296492537313434 -2.8992597014925376
H 1.9825477611940296 -3.869549253731343 -2.119359701492538
H 2.06294776119403 -3.373349253731343 -3.845759701492538
H 3.5215477611940305 -4.019849253731343 -3.0234597014925377
C 3.7281477611940304 -2.060049253731343 -1.156659701492538
H 3.9048477611940298 -1.032549253731343 -0.8295597014925382
H 3.12924776119403 -2.623249253731343 -0.4404597014925382
H 4.68244776119403 -2.5769492537313434 -1.3005597014925383
C 3.1110477611940297 3.755250746268656 2.588740298507462
H 3.40124776119403 4.809350746268656 2.534540298507462
H 2.9823477611940303 3.461750746268656 3.634840298507462
H 3.86514776119403 3.1392507462686563 2.091540298507462
C 1.99744776119403 3.9574507462686572 0.40494029850746194
H 2.67914776119403 3.230350746268657 -0.04295970149253803
H 1.03214776119403 3.981150746268657 -0.10175970149253821
H 2.4399477611940297 4.958250746268657 0.368240298507462
C 0.7418477611940297 4.4992507462686575 2.475440298507462
H -0.18475223880597014 4.424250746268656 1.901240298507462
H 0.57844776119403 4.189650746268656 3.511940298507462
H 1.1210477611940297 5.524350746268658 2.4432402985074617
N 3.00114776119403 -2.025349253731343 -2.490159701492538
N 1.7831477611940298 3.586450746268657 1.862540298507462
C -3.55075223880597 -3.8435492537313434 0.6444402985074619
H -2.62515223880597 -2.2736492537313433 1.7424402985074618
H -4.67195223880597 -1.3478492537313436 1.5102402985074619
H -4.83415223880597 -1.6757492537313432 -0.1945597014925382
H -3.7169522388059697 0.17335074626865676 -0.900559701492538
H -3.9132522388059705 -4.043149253731343 -0.34225970149253815
H -4.35435223880597 -3.9354492537313432 1.3449402985074619
H -2.78115223880597 -4.545049253731343 0.8904402985074619
H -5.24235223880597 1.138950746268657 1.5249402985074618
H -5.92805223880597 0.6501507462686567 -0.006059701492538094
H -4.89895223880597 2.059650746268657 0.08004029850746197
C 3.973251111223344 -1.3868056001767055 2.1466993297064776
O 4.175752039055941 -1.8823944720151276 3.2444973725799637
O 4.281404466626235 -1.9005975192230014 1.065176866889979
O 3.4288257742769277 -0.2947788906941431 1.947382740664148
O -2.65560298419683 1.4323501339976406 -4.421073478308892
H -2.7811963214804445 1.4083494928870284 -5.381603352782479
H -2.520259399180853 0.503770675663094 -4.1794451524566805
O 1.4289331044640785 3.099404484541622 -9.520739826337783
H 0.9147192741184256 2.8488172860256187 -10.302889140421195
H 1.7948922155225904 3.967033684200359 -9.749334325905911
O 9.25830389079661 4.349793209874386 0.39568452960511813
H 9.031014938830253 3.634440822414973 -0.21715970098708937
H 8.53412704275767 4.34537036141856 1.039509253793248
O -7.255231215997637 3.9899715326157965 -6.489837593343415
H -7.377609011049564 3.3463475805857774 -5.7758773419627865
H -6.467872328835716 3.673604450497858 -6.957747623647661
O -2.8299809507071716 7.0252833282109775 5.504317105113028
H -2.4018847578571756 6.483136882305274 6.183859773206175
H -2.091910771688008 7.466412738633705 5.0575294615924
O 3.35222212718698 -7.557664044507085 -2.368933476695209
H 3.854108964252218 -6.927167003388551 -2.9070323902988564
H 3.9377688459260565 -8.326882864348143 -2.3026055664595555
O 1.3601098353480494 -6.439748716853316 -1.7382738131702233
H 0.6950862438708123 -5.938635712649408 -2.233850988488509
H 2.1746248515338733 -5.928329083460229 -1.8564989851425515
O 0.5296763262165429 -0.24065820991742015 -11.04128939173725
H 0.256404626763727 0.5195520923277659 -11.57642510493387
H -0.28820377476190373 -0.7450679093132444 -10.916369657992336
O -8.865486896890797 3.1188292971069957 -7.998886008681197
H -9.215912425394405 2.5886190240052986 -8.7303546492738
H -9.031341340711755 2.574331570713249 -7.214681651567007
O 7.043157074168272 -2.158473537373256 8.946708998305686
H 7.174005085883312 -1.8420563638038043 8.040217781028574
H 7.1838225919076555 -1.3701694065157315 9.4923753374655
O 7.281728673853052 0.23911851819002372 1.9342254275607755
H 7.244386846198873 0.057411959790737654 0.983144110615619
H 7.296803534195897 -0.6406184312468288 2.3401781251514966
O -4.140020206079159 -2.3761882674743706 -5.944664287752888
H -4.24298606423169 -2.5370735589635265 -4.994674123626245
H -5.04406157210395 -2.4262389533756363 -6.2898686933690975
O -8.756962807298052 -0.9281102991123804 1.628092487419326
H -8.366602153172314 -1.5675113187950613 2.2427080197964986
H -9.537286663958442 -0.5978955713893637 2.0982146594357802
O -3.8985619120501944 6.67205083604737 -4.278436335363141
H -3.874786870353401 6.204937304141335 -5.127086470932911
H -3.061266555699293 6.430435153175621 -3.854737984736621
O 6.198457762497604 -4.997061835919589 -3.278841135397317
H 5.390343618806434 -4.717502532236448 -3.734654127084133
H 6.912474026444518 -4.64256935582939 -3.8297293279362288
O -6.030574490282203 5.052090986400681 6.619239593709459
H -6.949946328754642 5.357113030519987 6.593079851258737
H -5.7104551400296115 5.347635951701462 7.484767594053307
O -7.598211184948767 3.6722839817307253 -1.079528583728943
H -7.326029893753887 4.600530448114967 -1.1364776773886072
H -6.883812268553911 3.1912292313801927 -1.5235809001501521
O 0.9985080406237321 4.614578055878412 -2.88585213452219
H 0.5189322393371256 3.9655277145656065 -3.4222363831369695
H 1.246885018473564 5.304235787353281 -3.5196052683141437
O -0.15520286695746321 3.2113922707397298 7.70737114089487
H -0.8671288581350929 2.6273783841324683 7.405615411478456
H -0.4745405667158069 4.100471384361493 7.491677590841587
O -3.4018624998193445 -0.7889283588521456 -9.47004444165388
H -3.9063504326247296 -1.5562804228625065 -9.779285597409043
H -3.605974951549331 -0.7404132711979527 -8.524028407107593
C -4.271553018162789 -13.879770442180966 -14.25151947286267
O -4.471011493957411 -14.24493994229121 -13.129162216939708
O -4.072094542368168 -13.514600942070725 -15.373876728785632
O -9.629306874700681 11.236618829734914 5.053233737393652
H -9.801305061083704 11.30126799379724 4.101811398804214
H -10.305775972912574 11.804039119499244 5.452465146764395
O -9.315390681299442 -7.559502430410216 11.899074373357477
H -8.805698368658318 -7.171056129237363 12.625910375795215
H -9.073626090508544 -7.021741384898464 11.130097855595189
O 23.34710966069244 -5.836007743602885 -2.99248318149324
H 23.641784369993886 -6.738140728083217 -2.796804232930249
H 23.57644144536609 -5.33658040498987 -2.1943972147676494
O 13.491736536229118 4.769334817617982 8.740685448964989
H 14.218119675751446 4.272551117722641 9.146321797232721
H 13.470746972913961 5.600946391236719 9.237619622830307
O -0.13829142809297285 5.1447553437161595 -9.177997208044054
H 0.6242534920354043 5.6663125776365675 -9.4703508525086
H -0.16287760634373627 5.283254371908281 -8.219260808751288
O -2.4284764082296597 -10.562589423766074 -3.927957715691642
H -2.360129098237717 -11.17002779585 -4.67983179174221
H -2.3924549382350837 -9.683249119857955 -4.33345127658035
O 4.944684095928376 -12.527787399062113 -3.2605807599288075
H 4.907851659247954 -12.563465915312904 -2.292935281467648
H 5.8927521096148965 -12.549788196656117 -3.4596911580242384
O 10.288192134851013 -15.922929273306286 -15.85302129260077
H 10.457355518002714 -14.98278419493915 -15.690299633554618
H 10.839528732323906 -16.376745964156928 -15.19800960439026
O 14.407871571256143 1.8988437959660431 -9.399223044558243
H 14.271731190559521 2.298308294849294 -10.271496664344909
H 15.084941327849492 2.45762963621938 -8.988983024888057
O -2.07483267423085 -11.58968151488714 -16.065730709828873
H -1.986477487021511 -11.459990556877113 -17.02194249243963
H -1.8993648890555672 -10.712466179260542 -15.693351527264655
O -0.54868576712866 12.046675723626382 3.5857355482595628
H -0.421037499728504 11.96230739318873 4.542582067586932
H 0.2054745613268052 11.571143526881055 3.2061656954755096
O -0.40982046676920103 11.82423960700755 11.37235169395797
H 0.36542476118049044 11.246997669937317 11.44130051213957
H -1.1584936092238536 11.231208699951218 11.535951245739206
O 7.032494376460003 -19.895034497709958 17.695903009735527
H 6.8570442999680115 -19.962295369431306 16.74529236247018
H 6.7056693373130125 -19.014022843632315 17.932473936660077
O 17.427624082821975 11.053746943015312 0.5890745546484965
H 17.45259030604463 11.129397947194787 1.5547975843856123
H 17.026183359000537 11.886732623943422 0.299346846400813
O 7.92290577486299 -9.333883506168922 -1.2441118354961165
H 7.296025867447325 -8.626365566525182 -1.031021939769447
H 8.73395942151046 -9.075239342451457 -0.7812326686126496
O 2.8303301071119695 -4.138919688679587 7.01908969255134
H 2.8289931451269483 -4.041810329191058 7.983213824461946
H 1.9590433749948566 -3.811463998890625 6.749656684251472
O -6.820570375857566 -1.4159833780763935 -9.11425891872894
H -6.5250088776451065 -0.4945446745627202 -9.164869918930947
H -7.786908844789477 -1.3505405589217032 -9.084777650380772
O -9.123095172656823 1.145533716614358 -3.0627294675484933
H -8.946039155233457 1.9653971282436742 -2.577505282386917
H -9.483127699647707 0.5484100262049869 -2.389838821038637
O 7.128633061374147 -7.86209162203517 11.666785510713122
H 7.028274162005853 -7.682745249676767 12.613743971755351
H 8.084963158291632 -7.96326019897722 11.547791355103225
O 0.4270025098389336 -21.746245376991112 -11.223894110791576
H -0.014936505523499122 -21.40622456461387 -10.431402400582058
H 1.213300396855562 -21.186782599618144 -11.311637930558614