194

C -5.0710522388059704 1.0783507462686561 0.47044029850746183
C -3.8153522388059704 0.1782507462686569 0.19534029850746193
C -4.11845223880597 -1.3219492537313435 0.5608402985074619
C -2.96945223880597 -2.3874492537313436 0.7034402985074619
C -2.52015223880597 0.7359507462686565 0.7384402985074618
C -2.20305223880597 0.7852507462686571 2.097440298507462
C -1.5755522388059702 1.205650746268656 -0.18965970149253808
C -0.9533522388059701 1.2695507462686564 2.508640298507462
H -2.91125223880597 0.4298507462686567 2.840840298507462
C -0.32655223880597006 1.6562507462686575 0.21554029850746192
H -1.7850522388059702 1.178550746268657 -1.2573597014925382
C 0.004447761194029898 1.6956507462686563 1.569740298507462
H -0.7158522388059702 1.2676507462686573 3.5705402985074617
H 0.3943477611940298 1.9193507462686572 -0.5551597014925382
C -1.76045223880597 -2.1592492537313435 -0.1734597014925381
C -0.5287522388059701 -1.936549253731343 0.464840298507462
C -1.8068522388059702 -2.121249253731343 -1.5681597014925381
C 0.6114477611940299 -1.614449253731343 -0.2582597014925381
H -0.4544522388059702 -1.954049253731343 1.5506402985074619
C -0.6479522388059701 -1.8270492537313432 -2.2998597014925384
H -2.74345223880597 -2.290549253731343 -2.092259701492538
C 0.5698477611940298 -1.5506492537313434 -1.6506597014925382
H 1.5072477611940298 -1.351949253731343 0.2991402985074618
H -0.7173522388059701 -1.7640492537313435 -3.3840597014925375
C 1.7791477611940298 -1.082849253731343 -2.4255597014925376
H 1.4739477611940297 -0.9102492537313429 -3.464259701492538
H 2.1252477611940295 -0.1337492537313434 -2.0010597014925384
C 1.3965477611940298 2.0964507462686566 1.997440298507462
H 1.51704776119403 1.8448507462686567 3.057640298507462
H 2.1256477611940294 1.5207507462686571 1.4165402985074618
C 3.94864776119403 -1.4275492537313434 -3.522959701492538
H 4.81734776119403 -2.087049253731343 -3.615159701492538
H 3.4305477611940303 -1.3641492537313429 -4.484459701492538
H 4.26984776119403 -0.441449253731343 -3.176459701492538
C 2.60904776119403 -3.4296492537313434 -2.8992597014925376
H 1.9825477611940296 -3.869549253731343 -2.119359701492538
H 2.06294776119403 -3.373349253731343 -3.845759701492538
H 3.5215477611940305 -4.019849253731343 -3.0234597014925377
C 3.7281477611940304 -2.060049253731343 -1.156659701492538
H 3.9048477611940298 -1.032549253731343 -0.8295597014925382
H 3.12924776119403 -2.623249253731343 -0.4404597014925382
H 4.68244776119403 -2.5769492537313434 -1.3005597014925383
C 3.1110477611940297 3.755250746268656 2.588740298507462
H 3.40124776119403 4.809350746268656 2.534540298507462
H 2.9823477611940303 3.461750746268656 3.634840298507462
H 3.86514776119403 3.1392507462686563 2.091540298507462
C 1.99744776119403 3.9574507462686572 0.40494029850746194
H 2.67914776119403 3.230350746268657 -0.04295970149253803
H 1.03214776119403 3.981150746268657 -0.10175970149253821
H 2.4399477611940297 4.958250746268657 0.368240298507462
C 0.7418477611940297 4.4992507462686575 2.475440298507462
H -0.18475223880597014 4.424250746268656 1.901240298507462
H 0.57844776119403 4.189650746268656 3.511940298507462
H 1.1210477611940297 5.524350746268658 2.4432402985074617
N 3.00114776119403 -2.025349253731343 -2.490159701492538
N 1.7831477611940298 3.586450746268657 1.862540298507462
C -3.55075223880597 -3.8435492537313434 0.6444402985074619
H -2.62515223880597 -2.2736492537313433 1.7424402985074618
H -4.67195223880597 -1.3478492537313436 1.5102402985074619
H -4.83415223880597 -1.6757492537313432 -0.1945597014925382
H -3.7169522388059697 0.17335074626865676 -0.900559701492538
H -3.9132522388059705 -4.043149253731343 -0.34225970149253815
H -4.35435223880597 -3.9354492537313432 1.3449402985074619
H -2.78115223880597 -4.545049253731343 0.8904402985074619
H -5.24235223880597 1.138950746268657 1.5249402985074618
H -5.92805223880597 0.6501507462686567 -0.006059701492538094
H -4.89895223880597 2.059650746268657 0.08004029850746197
C 1.242748354257809 -2.691096687219292 2.849655650373937
O 0.7191338225599542 -1.816805106119046 3.522869993664443
O 1.0297619572627745 -3.9034451479415 2.9657567639756888
O 2.066664216369662 -2.498809610401293 1.9480810740635408
O 4.074159821753404 -0.733508816395155 -7.417814461128379
H 4.7059025217236705 -0.9965923073918326 -6.731771026133713
H 3.9138061489517293 0.20556290431938895 -7.24063391119911
O 6.337695114818304 4.600021813898748 1.007811867318653
H 5.826361761032352 4.814350776107356 0.21309892910473893
H 6.095870042750594 5.296491752705569 1.6366299675335472
O -3.642522262317995 -4.079042702009808 7.35475902757365
H -2.733278195275117 -4.081746925693044 7.0197436986383925
H -3.7357333083002007 -4.941904377821289 7.785738578855037
O 4.496526481527394 5.978839122219694 -1.5726317119770576
H 5.1855642085702955 6.069767828527597 -2.2478548884015086
H 3.761286975380869 6.508657836108157 -1.9156724432539538
O -3.443136125948162 -0.5853315054575481 -6.107034097133724
H -3.728255059646285 -0.5923584977585277 -7.033114640027294
H -4.245462621353589 -0.8123707282238278 -5.613387127735423
O 0.27501702676356166 -3.542439136463335 -5.542075611425212
H -0.3979183884200501 -3.270877211013574 -6.18424335005561
H -0.0023858145202320102 -3.115461328922708 -4.717636675047583
O -3.7777989289482123 -6.796818888710499 2.629186134494291
H -3.16240434540763 -6.524888371718778 1.93182635835465
H -3.2044862908269174 -7.1742009738765296 3.313187103109204
O -1.2585651989345996 4.773039395769238 -2.600446125144038
H -0.7313256468573539 5.573363367539966 -2.4573819722806673
H -1.1227008140152042 4.567675691869714 -3.5376379744103144
O -6.007934818661445 6.200863085578563 -2.7330339109865367
H -5.278615350419526 6.177943883488617 -2.0954327971866262
H -6.445909911033872 5.34410350565743 -2.6185665139919014
O 11.558714376906028 2.3929560992076935 -2.1832165590434984
H 10.904441787164822 2.7271478260364894 -1.551385390983134
H 11.692752037093165 1.4712607621212044 -1.9158711728020656
O 6.938870946518589 7.097886944271316 -7.6654225191579695
H 7.435993397133247 6.587387978043264 -7.008743425935892
H 6.67551253872137 6.438055818873634 -8.324381682762922
O -9.748023451839144 2.9783706344741434 -4.611312029065832
H -10.454742725824502 2.9635660034880047 -3.948517907502453
H -9.91363489040981 2.188568378828678 -5.147732752651238
O -7.540515380091543 -2.213974145064419 -1.3591680436576878
H -7.405536479261947 -2.551804520107924 -0.461048513233814
H -6.67845645194629 -2.3319926121790866 -1.7856513260087779
O 2.131219173744256 0.8544523197068812 8.824699478365075
H 2.508122699285085 1.5976397235369033 9.319253390616597
H 2.6879173919647634 0.10136877513507958 9.073525146304057
O 8.975097018367691 -4.321441768512267 0.7819160455079186
H 8.404208929002172 -4.199920300563092 0.00842611076534805
H 9.067686591485224 -3.4286609756282216 1.1470620041426076
O -5.13472962906422 1.2790036890877394 -4.450227636464724
H -5.288144715062421 2.2305395790679103 -4.5502807142175365
H -4.171948233223711 1.2043122219140843 -4.370008481303101
O 7.354117524915228 1.054887656738606 2.0648064343596575
H 7.271104898957191 1.0681359484134525 3.0301564970826322
H 6.476516027879784 1.3197515743651156 1.75076079780235
O -5.835670209416477 4.252809480725046 4.683069813440965
H -6.545041143242875 4.145307077882413 4.031760771184275
H -5.7405181745359855 3.3709413068711056 5.073219218799498
O -0.3052825553933385 6.300312488004334 -5.759202774532275
H -0.717117971643082 6.075065841526236 -6.606919056712094
H 0.5856493412896087 5.924937563058045 -5.824746389739953
O 4.840616816383075 -1.603129951202043 8.6304291905532
H 5.805850048395942 -1.62292572973401 8.713497186016603
H 4.6414129058739535 -2.3438408936124975 8.038291498684753
C 0.27804921870673294 8.215524512331585 -6.3582895199302945
O 0.3977690465915149 8.165505217355728 -5.168338474617356
O 0.15832939082195185 8.265543807307445 -7.548240565243234
O -4.306669089996109 8.971430378469549 -8.509293534925423
H -4.13815486282623 8.080072081727103 -8.16863138708721
H -4.83000610369643 8.820633164100462 -9.310755021542061
O -14.052871729194106 -3.984179905065465 -12.529950444044088
H -14.82459047610925 -4.560803439865051 -12.425438092262333
H -13.942817534607281 -3.57978707194747 -11.656270608476937
O 4.776798034248154 5.168430906216409 -15.101970533376797
H 4.791243638030968 4.556421657766968 -14.350835817600926
H 5.220972391126058 4.67943683784728 -15.810882295228655
O 0.7966969403130166 16.802827660267244 -5.329081354977138
H 0.6168706408295188 16.88903463314944 -6.2773419819888066
H 0.997107497966244 17.70752173838507 -5.0456626228868595
O -7.655820439189108 -7.251103273677622 6.792841295609204
H -7.963793139476878 -8.02643025658886 7.285779671420235
H -6.906209049743401 -6.925390007154319 7.3133752302609185
O 15.231897499238377 4.863733475373149 -6.2067082045591135
H 14.509510911583325 4.486491883509382 -6.730935022114435
H 14.981208390256198 4.6718971150017055 -5.290566443816182
O -2.1147423805962577 -13.524902217723234 2.489091430230382
H -3.075275026771652 -13.644005798960833 2.53555355962275
H -1.839313267982334 -13.479912054491297 3.4170335800635874
O -0.5508952260810549 -5.975443615476962 -4.071528729864802
H -0.5160155289584534 -5.602073582406883 -4.965030594459322
H -0.41810662040452184 -5.2098383008471165 -3.492583453769543
O -2.3350209620540054 17.6388076267013 0.2743855528937915
H -2.688367978893094 17.94430277125323 -0.5746055891366277
H -1.490476720417374 18.106424719688018 0.35829754586891016
O -10.291628224968738 3.8388941379001618 -12.574435908898671
H -10.234108801880717 3.9329012738229965 -13.537151615253984
H -9.46184837377652 3.401101037405593 -12.332021915872746
O -4.659610301389408 15.505064508495776 8.383867320229657
H -4.775551374899399 15.118452003031251 7.502927029976229
H -3.8199684777411056 15.984577248852485 8.320376501081125
O 4.971324090405749 11.194503604390428 -0.5985738518224952
H 5.834790528795214 11.042427113673414 -1.0112066276004397
H 5.182707632295827 11.35959129072255 0.33256791952036124
O 18.235512538786203 -0.3768937384890769 -5.789687818956225
H 18.121041137495588 -0.547254793345072 -4.842671047101092
H 18.869959230618456 0.3548630930816996 -5.82085316786496
O 4.6823863237994665 -11.565339454955229 -8.803514435894115
H 4.358340980931587 -12.33839906261556 -8.317365471409259
H 5.03406734800093 -10.984586384578972 -8.112133012391025
O -5.710990298605083 9.69372727013938 7.539579977561031
H -5.325119982961905 9.347072485248752 8.3580553385328
H -4.97424081595554 10.153710629168923 7.109955195301522
O 12.647377613835069 9.99945514322075 7.995382906095914
H 12.369614266343252 9.144843335062333 7.632817688450399
H 12.663538649501753 10.586563004055208 7.224665626561736
O -7.005684327949707 18.22868243876651 10.1982571285671
H -6.972244601869006 18.114549107001654 9.236580091199617
H -7.7704695487683715 18.806859798528674 10.33888589865274
O 1.9708959534398556 -18.86731068004264 -11.759030075936304
H 1.9107838806243773 -19.02882289420057 -12.7125853707565
H 2.0767254898073197 -19.751950461983647 -11.378012347031722
O -6.087963550827315 -6.943681536387992 -13.43676937889711
H -6.084379000404146 -6.916287563430949 -12.468160026194022
H -5.70722399758935 -6.091290091866803 -13.696438711332105
O 1.8802088165735098 -8.263313941427112 5.805897776813389
H 1.1178163247085475 -8.858052078345278 5.742560633342565
H 2.3267886253519086 -8.541105737532282 6.6197528847460685