194

C -5.0710522388059704 1.0783507462686561 0.47044029850746183
C -3.8153522388059704 0.1782507462686569 0.19534029850746193
C -4.11845223880597 -1.3219492537313435 0.5608402985074619
C -2.96945223880597 -2.3874492537313436 0.7034402985074619
C -2.52015223880597 0.7359507462686565 0.7384402985074618
C -2.20305223880597 0.7852507462686571 2.097440298507462
C -1.5755522388059702 1.205650746268656 -0.18965970149253808
C -0.9533522388059701 1.2695507462686564 2.508640298507462
H -2.91125223880597 0.4298507462686567 2.840840298507462
C -0.32655223880597006 1.6562507462686575 0.21554029850746192
H -1.7850522388059702 1.178550746268657 -1.2573597014925382
C 0.004447761194029898 1.6956507462686563 1.569740298507462
H -0.7158522388059702 1.2676507462686573 3.5705402985074617
H 0.3943477611940298 1.9193507462686572 -0.5551597014925382
C -1.76045223880597 -2.1592492537313435 -0.1734597014925381
C -0.5287522388059701 -1.936549253731343 0.464840298507462
C -1.8068522388059702 -2.121249253731343 -1.5681597014925381
C 0.6114477611940299 -1.614449253731343 -0.2582597014925381
H -0.4544522388059702 -1.954049253731343 1.5506402985074619
C -0.6479522388059701 -1.8270492537313432 -2.2998597014925384
H -2.74345223880597 -2.290549253731343 -2.092259701492538
C 0.5698477611940298 -1.5506492537313434 -1.6506597014925382
H 1.5072477611940298 -1.351949253731343 0.2991402985074618
H -0.7173522388059701 -1.7640492537313435 -3.3840597014925375
C 1.7791477611940298 -1.082849253731343 -2.4255597014925376
H 1.4739477611940297 -0.9102492537313429 -3.464259701492538
H 2.1252477611940295 -0.1337492537313434 -2.0010597014925384
C 1.3965477611940298 2.0964507462686566 1.997440298507462
H 1.51704776119403 1.8448507462686567 3.057640298507462
H 2.1256477611940294 1.5207507462686571 1.4165402985074618
C 3.94864776119403 -1.4275492537313434 -3.522959701492538
H 4.81734776119403 -2.087049253731343 -3.615159701492538
H 3.4305477611940303 -1.3641492537313429 -4.484459701492538
H 4.26984776119403 -0.441449253731343 -3.176459701492538
C 2.60904776119403 -3.4296492537313434 -2.8992597014925376
H 1.9825477611940296 -3.869549253731343 -2.119359701492538
H 2.06294776119403 -3.373349253731343 -3.845759701492538
H 3.5215477611940305 -4.019849253731343 -3.0234597014925377
C 3.7281477611940304 -2.060049253731343 -1.156659701492538
H 3.9048477611940298 -1.032549253731343 -0.8295597014925382
H 3.12924776119403 -2.623249253731343 -0.4404597014925382
H 4.68244776119403 -2.5769492537313434 -1.3005597014925383
C 3.1110477611940297 3.755250746268656 2.588740298507462
H 3.40124776119403 4.809350746268656 2.534540298507462
H 2.9823477611940303 3.461750746268656 3.634840298507462
H 3.86514776119403 3.1392507462686563 2.091540298507462
C 1.99744776119403 3.9574507462686572 0.40494029850746194
H 2.67914776119403 3.230350746268657 -0.04295970149253803
H 1.03214776119403 3.981150746268657 -0.10175970149253821
H 2.4399477611940297 4.958250746268657 0.368240298507462
C 0.7418477611940297 4.4992507462686575 2.475440298507462
H -0.18475223880597014 4.424250746268656 1.901240298507462
H 0.57844776119403 4.189650746268656 3.511940298507462
H 1.1210477611940297 5.524350746268658 2.4432402985074617
N 3.00114776119403 -2.025349253731343 -2.490159701492538
N 1.7831477611940298 3.586450746268657 1.862540298507462
C -3.55075223880597 -3.8435492537313434 0.6444402985074619
H -2.62515223880597 -2.2736492537313433 1.7424402985074618
H -4.67195223880597 -1.3478492537313436 1.5102402985074619
H -4.83415223880597 -1.6757492537313432 -0.1945597014925382
H -3.7169522388059697 0.17335074626865676 -0.900559701492538
H -3.9132522388059705 -4.043149253731343 -0.34225970149253815
H -4.35435223880597 -3.9354492537313432 1.3449402985074619
H -2.78115223880597 -4.545049253731343 0.8904402985074619
H -5.24235223880597 1.138950746268657 1.5249402985074618
H -5.92805223880597 0.6501507462686567 -0.006059701492538094
H -4.89895223880597 2.059650746268657 0.08004029850746197
C 0.8649927494469387 -0.5004292181062009 4.205290158687161
O 0.9190971110973449 -1.2107192370125774 3.2131529173276903
O 1.8213106302346174 0.10827027129047773 4.698820812845529
O -0.15446473810041073 -0.28040742909489236 4.869327226812058
O -8.427108238092494 -1.1324680370702505 -1.027408246575964
H -8.405173150868157 -0.18615628449390198 -1.2347250953469726
H -8.911831106311805 -1.1773478088639397 -0.18955892157236276
O -2.5535373200789806 -1.6792328423400842 3.8537612405909907
H -2.806885431135174 -2.043626736221423 4.715154984256601
H -1.769098552733153 -2.190735598876783 3.6047980010548764
O -0.22199111851635456 1.6131152834350693 -7.4604323272153055
H -0.4276547451732382 1.1834762030866526 -8.304280708269452
H -1.0065213017675543 2.1504513953895312 -7.274034262156947
O -7.497334650542107 0.7668810367431188 2.810152682075401
H -8.458489379049592 0.8131939230708267 2.924188033294663
H -7.213565995306161 1.6930136386253753 2.8369052209527377
O -11.092671599322625 1.425570720904794 -2.5177085598995266
H -11.065024836938953 1.4998631855371896 -1.551953081981567
H -11.964559768582319 1.7758341096921235 -2.7545387165101194
O -0.9928181563692919 -10.029375209945142 0.629965467174538
H -1.689412053272532 -10.41744239153166 0.07939470671530602
H -1.2650894014730851 -9.105376256138847 0.73511415596571
O 0.01984668935329098 -5.618422453846987 0.2744571411729203
H 0.17580902064850792 -6.2815505863467465 -0.41467578359874085
H -0.6841593276281424 -5.061978731681365 -0.09120370772453154
O 4.747687150828943 8.161168899878565 3.665979685634719
H 3.817699299592805 8.39556848324747 3.804351607532461
H 5.043512192347187 8.77433209205233 2.9764288253829116
O -6.444116581365806 -4.532468349146758 4.316912125550728
H -5.933522441171894 -3.753049362108388 4.050891405410887
H -6.029168935226597 -4.8120646787663 5.14673517158332
O 3.3638915342247797 -1.730827756276403 2.966386214580264
H 3.7851340912191027 -2.603162830696191 2.942857869676546
H 3.944417269694261 -1.2059116449987153 3.5377135208406303
O -2.280332890020318 -3.6914980285927204 9.098978827258517
H -1.4399322479406593 -3.331444385807769 8.777956254828812
H -2.8594042502021555 -2.9168313168885143 9.15839086218873
O 8.138425892895848 3.61447259131639 -3.723809432437359
H 8.971531967867646 3.1665192227173478 -3.9341410855613077
H 8.303492827749817 4.539297415244585 -3.9613255295004848
O 3.3333835009286856 -4.043502298949655 -5.681709990026746
H 2.9955894833101246 -4.773322669800968 -6.222288184973198
H 4.174163276907695 -3.809858710887922 -6.102972362381937
O 5.939424428079402 1.6309867443698312 6.110240954288793
H 5.154971906113427 1.140500309869371 5.8221009618333035
H 6.187141138500975 2.153847120184103 5.332928016611007
O -9.303182052977595 -3.6577216267537547 7.17307426005832
H -9.455444507154661 -4.55504434910787 7.505633177988628
H -8.58493332174262 -3.764627922712129 6.53147333404293
O -7.533040920019441 1.5246562287578067 6.445857793813568
H -6.578345312459879 1.6903636023554198 6.4539026767747485
H -7.924353323378832 2.4110438161145744 6.4334645594921565
O -1.795829520046687 -7.456132352264454 -6.526964952953913
H -1.5783468303298578 -6.559389659105091 -6.822804738714426
H -2.7349195530088544 -7.404357849845338 -6.293745624444531
O -4.814771647996964 1.2098614772177045 -3.971827539084953
H -5.111052974826734 1.016938915067068 -4.874027969856978
H -5.6316423835505525 1.2026786608936617 -3.4506437395997867
O 3.108018836356234 -10.249017276794337 -5.066140074666029
H 2.278693516643828 -10.415020802474352 -4.5932450541321685
H 2.8346807984331575 -9.747993664899866 -5.849226022470342
O 4.647678525401183 2.2350343448948697 9.149424605859622
H 4.778749011531474 1.7598702976724776 8.315154258314651
H 4.6771114725577165 3.1692509593495504 8.89381755744641
C -9.636681926125231 -10.371939977436602 -1.599131814186614
O -9.230331430728475 -10.297098327511943 -2.7225623904250242
O -10.043032421521985 -10.446781627361263 -0.47570123794820374
O 10.98350507145483 0.38371925965783493 -1.415968699655735
H 11.506458807088482 0.9780169827323508 -1.9748040632783843
H 11.180168200524431 -0.4987592238979337 -1.7645619928007226
O -11.100606980266836 -2.010536539139541 12.76566771896717
H -11.52167780595128 -2.7341537566582916 12.277769328758875
H -10.5198028103241 -2.4608787759641504 13.397189951520335
O 8.938584512884722 -18.9056366908246 8.014673191749107
H 9.254025199564923 -17.989786094528977 8.04079244425906
H 8.0358932914441 -18.85230158264337 8.362905684875948
O -19.310986383212732 -4.266967242436743 -3.9346071734446197
H -18.975824764799054 -4.663342704168338 -4.752849521272811
H -18.96011571830966 -4.839775654540348 -3.23622171838859
O 10.094961753973639 21.428423106156753 2.222310026222231
H 9.87939424746295 20.807629787776303 2.9344291615436706
H 10.569979692068024 22.14380512399112 2.671251527253025
O 2.659685775734464 8.972216332061823 -2.5054721075444677
H 3.462315655120988 9.263379765902297 -2.9637040230743628
H 1.9835426018340363 9.603709863235427 -2.7935836706129225
O 13.141273843832899 -4.091531475253413 -10.823263067657326
H 12.833089662530574 -3.305807503280882 -10.347208756509193
H 12.461435760658988 -4.757452817770366 -10.640695571791154
O 3.2984867486821923 -12.685959969473338 6.872608163693444
H 4.045838965202402 -12.569283206162037 6.266952688802373
H 3.554547893488177 -12.182597348548711 7.660022099483597
O -9.443527611108838 -2.5858323531358858 -11.073028889288235
H -9.093121767168922 -2.444915380582052 -11.96539961285497
H -10.3945757611424 -2.709174600224072 -11.211795062042896
O 6.41048704524722 2.9845543269568475 14.443035788762412
H 6.140894215123206 3.4297624499576402 13.625676143282016
H 5.68928713046428 2.3618182202767777 14.619195854197311
O -12.50759314013021 5.326256600558269 -8.545714868631823
H -13.308878743265574 4.999887691067686 -8.98205427096208
H -11.852809947814952 4.630655326989187 -8.708071832050427
O -10.256339531439508 -7.163377019458162 -5.636513157639309
H -10.374490452957522 -7.1745307989446605 -4.674804620790638
H -10.711559134419558 -6.355917853407772 -5.918907832737647
O 9.345829835605473 7.328468975845851 -12.691250738361024
H 9.324569147862267 7.343164959510178 -11.722592197841804
H 8.47608759189185 6.980575671964221 -12.939203602660509
O 11.826357629795265 -11.300389865465252 4.658850242708459
H 12.029232567523067 -11.075339291516208 5.579263929974758
H 11.905970198989722 -10.456870382338469 4.188638944767013
O -4.039941811345725 -10.245229355414226 -3.423283574660978
H -3.693154203487549 -10.642891878766552 -4.236038291323434
H -3.3117992289556266 -10.333977056629811 -2.7901215341537897
O -5.584277194063786 -21.26227870976421 -1.4789288144277117
H -5.046444423752091 -22.05962524126258 -1.5970041157670067
H -5.431722974369603 -21.011689533480286 -0.5554060918686821
O 12.482330607439806 16.856601832821053 5.619309750578784
H 11.761324964434994 16.37982070029369 6.057257203272759
H 12.077919385831631 17.694169352429363 5.347474951050532
O 13.246463714970291 -7.9686923280408966 5.543789297851734
H 13.19396757699711 -7.1404272690477395 6.04397776678016
H 13.49471797360529 -8.628356733379931 6.208751431885156
O 15.35883270378585 -1.4661091940577862 11.682753383721748
H 15.353291677281746 -1.4252382433543422 12.650878488919355
H 16.270028506412693 -1.712850643979701 11.464114845340124
O 4.1838161964469345 6.215119826849338 8.53381894126131
H 4.0811498436142175 6.123408942529955 9.492993633688807
H 4.0899100744483725 5.310011070986114 8.200769808833503