194

C -5.0710522388059704 1.0783507462686561 0.47044029850746183
C -3.8153522388059704 0.1782507462686569 0.19534029850746193
C -4.11845223880597 -1.3219492537313435 0.5608402985074619
C -2.96945223880597 -2.3874492537313436 0.7034402985074619
C -2.52015223880597 0.7359507462686565 0.7384402985074618
C -2.20305223880597 0.7852507462686571 2.097440298507462
C -1.5755522388059702 1.205650746268656 -0.18965970149253808
C -0.9533522388059701 1.2695507462686564 2.508640298507462
H -2.91125223880597 0.4298507462686567 2.840840298507462
C -0.32655223880597006 1.6562507462686575 0.21554029850746192
H -1.7850522388059702 1.178550746268657 -1.2573597014925382
C 0.004447761194029898 1.6956507462686563 1.569740298507462
H -0.7158522388059702 1.2676507462686573 3.5705402985074617
H 0.3943477611940298 1.9193507462686572 -0.5551597014925382
C -1.76045223880597 -2.1592492537313435 -0.1734597014925381
C -0.5287522388059701 -1.936549253731343 0.464840298507462
C -1.8068522388059702 -2.121249253731343 -1.5681597014925381
C 0.6114477611940299 -1.614449253731343 -0.2582597014925381
H -0.4544522388059702 -1.954049253731343 1.5506402985074619
C -0.6479522388059701 -1.8270492537313432 -2.2998597014925384
H -2.74345223880597 -2.290549253731343 -2.092259701492538
C 0.5698477611940298 -1.5506492537313434 -1.6506597014925382
H 1.5072477611940298 -1.351949253731343 0.2991402985074618
H -0.7173522388059701 -1.7640492537313435 -3.3840597014925375
C 1.7791477611940298 -1.082849253731343 -2.4255597014925376
H 1.4739477611940297 -0.9102492537313429 -3.464259701492538
H 2.1252477611940295 -0.1337492537313434 -2.0010597014925384
C 1.3965477611940298 2.0964507462686566 1.997440298507462
H 1.51704776119403 1.8448507462686567 3.057640298507462
H 2.1256477611940294 1.5207507462686571 1.4165402985074618
C 3.94864776119403 -1.4275492537313434 -3.522959701492538
H 4.81734776119403 -2.087049253731343 -3.615159701492538
H 3.4305477611940303 -1.3641492537313429 -4.484459701492538
H 4.26984776119403 -0.441449253731343 -3.176459701492538
C 2.60904776119403 -3.4296492537313434 -2.8992597014925376
H 1.9825477611940296 -3.869549253731343 -2.119359701492538
H 2.06294776119403 -3.373349253731343 -3.845759701492538
H 3.5215477611940305 -4.019849253731343 -3.0234597014925377
C 3.7281477611940304 -2.060049253731343 -1.156659701492538
H 3.9048477611940298 -1.032549253731343 -0.8295597014925382
H 3.12924776119403 -2.623249253731343 -0.4404597014925382
H 4.68244776119403 -2.5769492537313434 -1.3005597014925383
C 3.1110477611940297 3.755250746268656 2.588740298507462
H 3.40124776119403 4.809350746268656 2.534540298507462
H 2.9823477611940303 3.461750746268656 3.634840298507462
H 3.86514776119403 3.1392507462686563 2.091540298507462
C 1.99744776119403 3.9574507462686572 0.40494029850746194
H 2.67914776119403 3.230350746268657 -0.04295970149253803
H 1.03214776119403 3.981150746268657 -0.10175970149253821
H 2.4399477611940297 4.958250746268657 0.368240298507462
C 0.7418477611940297 4.4992507462686575 2.475440298507462
H -0.18475223880597014 4.424250746268656 1.901240298507462
H 0.57844776119403 4.189650746268656 3.511940298507462
H 1.1210477611940297 5.524350746268658 2.4432402985074617
N 3.00114776119403 -2.025349253731343 -2.490159701492538
N 1.7831477611940298 3.586450746268657 1.862540298507462
C -3.55075223880597 -3.8435492537313434 0.6444402985074619
H -2.62515223880597 -2.2736492537313433 1.7424402985074618
H -4.67195223880597 -1.3478492537313436 1.5102402985074619
H -4.83415223880597 -1.6757492537313432 -0.1945597014925382
H -3.7169522388059697 0.17335074626865676 -0.900559701492538
H -3.9132522388059705 -4.043149253731343 -0.34225970149253815
H -4.35435223880597 -3.9354492537313432 1.3449402985074619
H -2.78115223880597 -4.545049253731343 0.8904402985074619
H -5.24235223880597 1.138950746268657 1.5249402985074618
H -5.92805223880597 0.6501507462686567 -0.006059701492538094
H -4.89895223880597 2.059650746268657 0.08004029850746197
C 2.7168496410548797 -1.3436416496353476 2.7619725420333965
O 3.156207472756638 -1.128337625099014 1.6428727380209096
O 3.344523833307081 -1.1887149789514948 3.8158483882275123
O 1.5765465422491893 -1.7497761451241625 3.013789933863639
O -2.0471847275361883 -5.085768167511892 -9.407069061135697
H -1.6530763768450902 -4.557520222995155 -10.117421138579964
H -2.0351589078455983 -4.4932067516205505 -8.640460756747062
O -3.3455994308019514 -3.5288220281883547 7.125847623871474
H -4.309726411941902 -3.465635866553368 7.05213174962581
H -3.0437824148186317 -2.6119393606012355 7.041026594396159
O -1.2881912263451745 -7.994094713676209 6.128093604304619
H -1.102124325634221 -8.291773277269524 7.0312735078326165
H -0.7948717075253988 -8.61462122091283 5.570828272108058
O 7.99677799864522 -1.6011055237026044 -4.203241712337101
H 8.1668330287887 -1.9687188890261007 -3.3229525227758323
H 8.75393840375066 -1.8968830625691364 -4.730674848139758
O -6.0555182023445475 4.609332044582426 -2.6885923616588956
H -5.489454105760927 3.893956849353263 -3.0153600551504764
H -6.923614595694197 4.414941009154379 -3.072757328175289
O -2.4042661953965183 -7.725135145090048 1.6232506076016722
H -2.374022654884108 -7.795611131130992 0.6572869330523481
H -1.6109572706153783 -8.197502044644391 1.9173465211537117
O -0.612413858633813 -5.196111429790453 0.8419224577905244
H -1.273215964767988 -5.879087712897137 0.6525779829769722
H -0.24881068187421995 -5.454327908688677 1.7022008570170386
O -9.725960276852419 -0.02382599954368292 2.612530158960654
H -9.38159326866714 -0.6070457491183665 1.9195413825150576
H -9.824072158629683 0.8327193820138303 2.170188648036552
O -11.6373355138645 -0.7269761826175724 -2.5808821329730094
H -11.0680653602749 -1.433098453538199 -2.9218956043227093
H -11.67239624664968 -0.8946443887796001 -1.6271420939901784
O -6.745894560609127 0.907330164058865 -5.885033845882074
H -6.49245445901925 0.6894091711663697 -6.794564446061563
H -6.118230923454468 1.5988022239678146 -5.626447896420278
O 9.087056813893625 -0.23911789798421323 5.9343799936115875
H 9.695194042625896 0.4195814960373472 6.30214564758904
H 8.446620997599444 -0.38940172951902174 6.6458704569959
O 1.0362110474760469 2.3252904511883044 -10.984004542940863
H 0.4363092540995348 2.587481023732128 -10.269622783044387
H 0.488484277440131 1.7677539235207407 -11.556813717101349
O -7.730950281293818 -1.6201890703056023 4.171403433850105
H -7.079263312068515 -1.090464780412872 4.654791091677222
H -8.53574942113976 -1.08108426455816 4.196429364866611
O -3.77798512853088 -9.055844193272241 3.964218182578759
H -2.819170102350383 -9.106647312037438 3.8336036902962207
H -3.9585279242204328 -9.729210918445267 4.637228952666695
O -8.792769044175426 -2.994181662597734 -1.6513005552588753
H -8.480124467156969 -3.3770123869791053 -2.484764028862
H -9.052877870652202 -2.0920749368891074 -1.8911104760714512
O -8.098196015699255 4.958400671162723 -1.0834276897130062
H -8.522305349701988 5.0706749912329565 -0.21942936404071267
H -8.381175855281066 5.737043864482585 -1.5860201013020605
O 5.382298661045758 -4.926330669972484 2.4667546973107415
H 4.730148273943824 -4.784343409608502 3.169255122504299
H 4.910709785709974 -4.681105644621343 1.6565506712154239
O -7.962237116672771 -10.065287629427905 2.9238119840501233
H -7.238350517200266 -10.176094032465183 2.2892432414775987
H -8.230992881936098 -10.97245510621358 3.1330473825849734
O 10.684483866434682 -1.8335456972622701 0.2417839957326371
H 10.090448185739422 -1.06805862182736 0.25266996390411434
H 11.361868853423735 -1.5949141899586081 -0.408728515618084
O -8.806351198342048 -5.036997799055108 5.193869773789546
H -8.762345813606723 -5.733304196666621 5.866319239295745
H -8.939494252017735 -5.520444856637953 4.364705246043451
C 11.282725363422394 3.573635297663916 12.244559572841954
O 11.524822681470667 4.67874687866422 12.635629310143166
O 11.04062804537412 2.4685237166636105 11.853489835540742
O -10.119546110660627 1.0064028354934242 15.855140428167202
H -9.277036655346745 0.8413628022969508 15.405799842364836
H -10.610100035037894 0.17812860197467506 15.744322624241155
O -6.360234212370352 -20.33331310843592 -0.8980665981686222
H -5.620010644482226 -20.56980600814377 -0.319181864537871
H -7.020922836275547 -19.96290289470079 -0.29370845922867694
O -10.936242760262338 -4.869249598815165 -20.89069683175645
H -10.541110742794075 -4.970335425836834 -21.76968471634122
H -11.339340414149442 -3.988411840967432 -20.915172739921267
O -6.014093236396757 -7.9035532446050425 9.18115679731759
H -6.004583885783472 -7.931754228503312 10.149702941627755
H -5.752273608108972 -6.994599119004226 8.970883584338619
O -3.4196796876223368 -1.9619621443664583 10.377647462765697
H -2.946999316849918 -2.3699166567700862 11.118669554066603
H -4.319144855857493 -2.3148600730226163 10.451046423125453
O 3.4354220409785032 -8.554728053505176 4.145010834031892
H 3.0210247357792905 -8.921202131815079 4.940585456723276
H 4.306942069317926 -8.977510757384453 4.119134787120182
O -10.831310222477498 -21.580280789477424 -5.553716298876855
H -10.338669009539913 -22.21881119805166 -6.09088564791066
H -11.558966654194263 -22.10025357740927 -5.180746646637418
O 2.685351241808444 -4.831427011546156 -9.630329514448842
H 2.267547746188518 -4.311028288166605 -10.332891088015675
H 2.7673051076962594 -5.717932153877236 -10.012892111662152
O -14.826430565482655 -7.26161478669847 1.0138238800871404
H -15.08037876327834 -6.600977851012013 0.3519806139408943
H -14.363715053911614 -6.74732099625165 1.6923208931678109
O 1.458198240688965 -18.53064453568899 -13.096903035938276
H 1.4773522388259988 -18.51035386666139 -12.128301585389195
H 1.1338249392856472 -19.419470868724503 -13.306024185847507
O -10.635734709755063 7.422376966920786 1.5205039168905878
H -10.135565663603103 8.224289794969337 1.7343592380369486
H -11.010394345684192 7.606439505503576 0.6460251673512352
O 12.091275010041851 -3.143318697847204 -7.549618600429161
H 12.19922240674632 -3.1110982781524923 -8.512051227161768
H 12.272730652985482 -2.235567635606512 -7.263220620434872
O -11.94273071395734 -6.898993074644535 -3.6129861794944365
H -11.772820194220705 -7.0728252228041395 -4.551005452456909
H -12.216467559542506 -5.969675768762128 -3.5930004681849916
O -3.6055757714433208 -1.378518919277623 -15.090193076814902
H -3.4223619003958814 -0.4320140634692917 -14.992578568225946
H -4.122574410823941 -1.4337354727098326 -15.907888303293358
O 4.158265041425091 12.67633912945438 -3.702700312425624
H 4.008441675604653 12.93884092364161 -2.782041241975155
H 3.400543336653058 12.109269729995189 -3.9106716051906525
O 9.30570050188339 7.413743527467617 4.372772182665178
H 10.111827860844613 7.4931043563052695 3.8409565220454454
H 9.580468983294466 6.884873889749547 5.136814807276533
O -0.8821098489603463 8.938946703790156 12.486365852046145
H -1.5684281196799819 9.348911388085314 11.938767873774507
H -0.09290489922189588 8.956279563112023 11.924389817329308
O -0.24213932702748564 -13.901373009570968 7.681104639203245
H 0.6333744045670384 -13.536262843061063 7.878936964672427
H -0.4687785247261853 -13.513807461008522 6.822390738108138
O -10.612831361837317 -2.747021202611894 -13.74235993128233
H -9.804964600342734 -2.2743609798126863 -13.491539345293742
H -10.582629168834714 -2.7646135769638644 -14.710729840047826
O 22.07714052146271 1.2519306407142636 3.4784930956389326
H 21.75526896741012 0.5719547070807511 2.8677568274584626
H 22.08079059777652 2.061718572599503 2.946335105361671