194

C -5.0710522388059704 1.0783507462686561 0.47044029850746183
C -3.8153522388059704 0.1782507462686569 0.19534029850746193
C -4.11845223880597 -1.3219492537313435 0.5608402985074619
C -2.96945223880597 -2.3874492537313436 0.7034402985074619
C -2.52015223880597 0.7359507462686565 0.7384402985074618
C -2.20305223880597 0.7852507462686571 2.097440298507462
C -1.5755522388059702 1.205650746268656 -0.18965970149253808
C -0.9533522388059701 1.2695507462686564 2.508640298507462
H -2.91125223880597 0.4298507462686567 2.840840298507462
C -0.32655223880597006 1.6562507462686575 0.21554029850746192
H -1.7850522388059702 1.178550746268657 -1.2573597014925382
C 0.004447761194029898 1.6956507462686563 1.569740298507462
H -0.7158522388059702 1.2676507462686573 3.5705402985074617
H 0.3943477611940298 1.9193507462686572 -0.5551597014925382
C -1.76045223880597 -2.1592492537313435 -0.1734597014925381
C -0.5287522388059701 -1.936549253731343 0.464840298507462
C -1.8068522388059702 -2.121249253731343 -1.5681597014925381
C 0.6114477611940299 -1.614449253731343 -0.2582597014925381
H -0.4544522388059702 -1.954049253731343 1.5506402985074619
C -0.6479522388059701 -1.8270492537313432 -2.2998597014925384
H -2.74345223880597 -2.290549253731343 -2.092259701492538
C 0.5698477611940298 -1.5506492537313434 -1.6506597014925382
H 1.5072477611940298 -1.351949253731343 0.2991402985074618
H -0.7173522388059701 -1.7640492537313435 -3.3840597014925375
C 1.7791477611940298 -1.082849253731343 -2.4255597014925376
H 1.4739477611940297 -0.9102492537313429 -3.464259701492538
H 2.1252477611940295 -0.1337492537313434 -2.0010597014925384
C 1.3965477611940298 2.0964507462686566 1.997440298507462
H 1.51704776119403 1.8448507462686567 3.057640298507462
H 2.1256477611940294 1.5207507462686571 1.4165402985074618
C 3.94864776119403 -1.4275492537313434 -3.522959701492538
H 4.81734776119403 -2.087049253731343 -3.615159701492538
H 3.4305477611940303 -1.3641492537313429 -4.484459701492538
H 4.26984776119403 -0.441449253731343 -3.176459701492538
C 2.60904776119403 -3.4296492537313434 -2.8992597014925376
H 1.9825477611940296 -3.869549253731343 -2.119359701492538
H 2.06294776119403 -3.373349253731343 -3.845759701492538
H 3.5215477611940305 -4.019849253731343 -3.0234597014925377
C 3.7281477611940304 -2.060049253731343 -1.156659701492538
H 3.9048477611940298 -1.032549253731343 -0.8295597014925382
H 3.12924776119403 -2.623249253731343 -0.4404597014925382
H 4.68244776119403 -2.5769492537313434 -1.3005597014925383
C 3.1110477611940297 3.755250746268656 2.588740298507462
H 3.40124776119403 4.809350746268656 2.534540298507462
H 2.9823477611940303 3.461750746268656 3.634840298507462
H 3.86514776119403 3.1392507462686563 2.091540298507462
C 1.99744776119403 3.9574507462686572 0.40494029850746194
H 2.67914776119403 3.230350746268657 -0.04295970149253803
H 1.03214776119403 3.981150746268657 -0.10175970149253821
H 2.4399477611940297 4.958250746268657 0.368240298507462
C 0.7418477611940297 4.4992507462686575 2.475440298507462
H -0.18475223880597014 4.424250746268656 1.901240298507462
H 0.57844776119403 4.189650746268656 3.511940298507462
H 1.1210477611940297 5.524350746268658 2.4432402985074617
N 3.00114776119403 -2.025349253731343 -2.490159701492538
N 1.7831477611940298 3.586450746268657 1.862540298507462
C -3.55075223880597 -3.8435492537313434 0.6444402985074619
H -2.62515223880597 -2.2736492537313433 1.7424402985074618
H -4.67195223880597 -1.3478492537313436 1.5102402985074619
H -4.83415223880597 -1.6757492537313432 -0.1945597014925382
H -3.7169522388059697 0.17335074626865676 -0.900559701492538
H -3.9132522388059705 -4.043149253731343 -0.34225970149253815
H -4.35435223880597 -3.9354492537313432 1.3449402985074619
H -2.78115223880597 -4.545049253731343 0.8904402985074619
H -5.24235223880597 1.138950746268657 1.5249402985074618
H -5.92805223880597 0.6501507462686567 -0.006059701492538094
H -4.89895223880597 2.059650746268657 0.08004029850746197
C 1.7025904943043557 -2.3376407204696 4.300670720758341
O 1.8725533686698013 -1.1440917542987163 4.496448618616731
O 1.3545252354247441 -3.1578203015197888 5.1578681860423945
O 1.8523567080901893 -2.910021106857288 3.2150376525041833
O -9.244459527390838 -0.03817063207073623 1.0805936019573732
H -9.87764425337014 -0.6732344876788412 1.4476608423734638
H -8.393390465742975 -0.31475894442651153 1.4522685971803653
O 3.0126292497807934 2.300344045307574 -5.624564021020738
H 2.5970623390140295 1.669300648268757 -6.231239989416948
H 3.7621803307655357 1.8103055249477984 -5.254432463519618
O 7.871260224191134 -1.0479620557537417 -8.873742323811944
H 7.672782408817601 -1.568907435080685 -8.081158053552649
H 8.418178824850989 -0.31921030740456724 -8.543950150117226
O 0.9244865205594812 6.535636151355024 6.245120462172811
H 0.8924819584670911 6.057339229954502 7.087245820943142
H 1.3470526767439566 7.3780626335655715 6.4703257241402845
O -6.67798697759604 5.717763109271648 -2.90475927343748
H -7.505488858176003 5.86529396863714 -2.422636218531883
H -6.8672405456687935 6.040270682537812 -3.7987021667241283
O -1.3077446863511952 -3.922481765642125 6.020847569086075
H -1.356881847493249 -3.896787343231223 5.053432098384954
H -1.898408118022051 -4.650493463981452 6.2659549371268914
O 6.4246548968399795 -3.964043388301785 -8.85647301632063
H 6.537471544835139 -3.858453876122644 -7.8998693283950026
H 5.672327345957141 -4.56928142298094 -8.938033557395002
O 0.1457770720246112 -4.946415867074045 -3.898057285179525
H -0.7147770608485697 -5.2213090145532774 -3.5475609246223154
H 0.7656753842443622 -5.594866238192299 -3.5317239083167262
O 3.737627152300867 2.2127160942134685 6.745383278468055
H 3.725853114013346 2.295153943739813 7.710801700649794
H 3.7762981158463957 3.1290585581140613 6.432680560649599
O -3.515435556781508 -6.499550430122017 2.6808509598747627
H -3.5479259013275515 -6.536935573535457 3.648587538424544
H -4.369554425228141 -6.86376568422898 2.4037406000192654
O -2.723008632755014 8.457720129345729 5.016191020044941
H -2.7870408224259187 8.808027979598275 4.1149964541284625
H -3.4246313880380996 7.790709737633124 5.05843543880488
O 6.815321666118236 7.72817149487774 -0.9359633627496426
H 6.365059397286923 7.5743137298210375 -0.09183124376669838
H 7.643728565669878 7.232343998389914 -0.853144000268101
O -0.17219998536822922 4.25039544185021 -3.9970227131682132
H -0.06021160669629319 4.972622308781765 -4.633272909729804
H 0.10183957352279854 3.461267058698774 -4.48808346233028
O -3.557481739975737 9.090774615417642 -0.8628163447272827
H -4.00585310180495 9.651179588932623 -1.5138745175898078
H -3.2497558127729635 8.331351430817246 -1.380062054925626
O -2.1610998984781915 4.48841178347841 -0.9643573200362394
H -1.969100521008386 4.251808015863144 -0.04450828182319172
H -2.0652185096064866 3.6529745775196414 -1.4458273382801963
O -2.2326638177358777 -0.6121680858828675 9.862089737723476
H -1.6756594402767218 -0.9047453483383512 10.599051083986218
H -1.6749724346619366 -0.7436161714536813 9.080640016791385
O -1.675733021116365 -1.2949001449856015 -8.616172619349863
H -1.1783572434044787 -0.9615772182312443 -7.854279897803445
H -1.0093076666271585 -1.3713773306699224 -9.31545112700167
O 4.381275324989281 -3.4832737695070763 5.050449668753779
H 4.747893963501616 -3.180969186151456 5.894943641306305
H 5.121135983336194 -3.9420740140622073 4.624925890185971
O -6.88961560063049 4.349983370509605 8.494814086752182
H -7.1688441239055525 4.068923080108998 7.610504241816847
H -7.099360023042001 5.295753115165578 8.516923172229408
O 5.0235998836697 -0.8972219933061818 5.761073544647088
H 4.6691811017875455 -0.38913740762350413 6.506194164238865
H 5.755814045441632 -1.4003115822144028 6.14801699159093
C 8.934736058122102 14.575443388232333 -2.593634825515555
O 8.855582107254842 14.710316212837927 -1.40689044253116
O 9.01389000898936 14.44057056362674 -3.7803792084999506
O -4.696440714415669 13.697781477480156 -1.3888455737859635
H -3.8015805381048344 13.675970896770318 -1.017743269398018
H -5.271299710291863 13.75169093555012 -0.6106471097095945
O -13.534381078180509 -5.027915282455008 8.676087533734469
H -13.686628001810377 -4.96005868625031 9.630646967974554
H -13.998509398105057 -5.839749071140436 8.422172692709607
O 9.36791457677659 16.10987126807966 8.03337967637299
H 9.340772078551629 16.058910001600342 9.00066122329143
H 8.673120840915846 15.49806182811697 7.74717552182381
O -15.327171496150624 8.861561203046328 13.665924964020173
H -15.377516061734017 8.914102338610022 12.69965781116342
H -16.11008405130252 9.346212851987383 13.967790255937354
O 7.397551602191768 21.491982945589687 7.557638796346158
H 6.63497058141779 21.247121055310036 7.01222134306473
H 7.093116730423243 22.268843833629127 8.050354245450254
O -4.502793415211125 -3.578410291162054 18.073519378675197
H -4.298353076325934 -4.443584561130027 18.459064430934845
H -5.145830755413096 -3.778671238140459 17.376841205828306
O -11.142107121160446 10.3846537850626 1.0882491205058664
H -11.75288397740751 10.79072701457775 0.4549849410009055
H -10.301421806000734 10.83864255239212 0.9266807315387182
O 3.4837908427216373 -7.104824189927561 11.773773654937493
H 3.0336478876882325 -7.838062920230099 11.328016275505457
H 4.107814170082771 -6.77499480851641 11.10986898529954
O 7.690932848142437 -0.1984910870436396 0.5516200658415169
H 7.8829077379374 -1.0858488998251694 0.21293273114505684
H 7.036755120348011 0.1531309315875775 -0.07077482550274006
O 11.996186857065883 -1.557386283324655 1.6008644554895342
H 12.025746877378978 -1.7858377255243862 0.6596399866958499
H 12.53546761846476 -2.241750351299463 2.0248739213626648
O 6.8586546173427605 7.083166050431166 15.747571252693751
H 6.766434371243877 7.325682576903381 14.813950067470689
H 7.808379012583641 6.923859966896089 15.855307454283823
O 5.812371606621795 -13.804534661779458 -3.3584009927708314
H 5.679441232813907 -12.927817640498986 -3.749123576218974
H 5.495863933326431 -14.415349173020497 -4.040816166915226
O -4.354287392344261 1.4206744332231436 -17.783077637920336
H -3.523788670894156 0.9330721898104875 -17.890237718121337
H -4.89216303504327 1.1353544342877102 -18.53689740119178
O -4.546428069174515 -3.3516419016024646 5.658691237841353
H -4.217677654511068 -3.18537221664577 4.76245192068158
H -4.584801255263121 -2.4709660636106463 6.0610586212943565
O 8.897408294480233 -6.990327844081899 -16.87393415172878
H 9.203346750617492 -6.38037179788333 -16.185949675405247
H 8.76863240428144 -7.827813149520373 -16.4038308890533
O -17.45649510619589 10.752137848321071 5.338049748241848
H -17.167313503111032 10.522616078085594 4.442136184149173
H -17.68856475502605 11.690876831188 5.275802303010687
O 8.848265147683266 7.997428446331606 2.8889687212009485
H 8.8257018151796 7.9359583091060415 3.855757051269015
H 9.79114450233406 7.940829780835379 2.6727811685126643
O -3.0926836715856654 11.337036906395442 -11.212769805323727
H -3.2137725594088487 10.663650698982657 -10.526580433639811
H -2.3828551232204616 10.980613244658619 -11.76780813695485
O 7.619122124460581 2.0509724118039103 -8.526808803330372
H 7.4221045780595425 1.6449463962903108 -7.669315760771852
H 8.54317872383429 1.8109984914816186 -8.692621538121903
O -5.942960428651855 -15.187551856496746 7.3418667993690905
H -6.57421789602129 -15.698026040351085 6.81281342360387
H -5.08826470223276 -15.602271987857401 7.150910332641359