194

C -5.0710522388059704 1.0783507462686561 0.47044029850746183
C -3.8153522388059704 0.1782507462686569 0.19534029850746193
C -4.11845223880597 -1.3219492537313435 0.5608402985074619
C -2.96945223880597 -2.3874492537313436 0.7034402985074619
C -2.52015223880597 0.7359507462686565 0.7384402985074618
C -2.20305223880597 0.7852507462686571 2.097440298507462
C -1.5755522388059702 1.205650746268656 -0.18965970149253808
C -0.9533522388059701 1.2695507462686564 2.508640298507462
H -2.91125223880597 0.4298507462686567 2.840840298507462
C -0.32655223880597006 1.6562507462686575 0.21554029850746192
H -1.7850522388059702 1.178550746268657 -1.2573597014925382
C 0.004447761194029898 1.6956507462686563 1.569740298507462
H -0.7158522388059702 1.2676507462686573 3.5705402985074617
H 0.3943477611940298 1.9193507462686572 -0.5551597014925382
C -1.76045223880597 -2.1592492537313435 -0.1734597014925381
C -0.5287522388059701 -1.936549253731343 0.464840298507462
C -1.8068522388059702 -2.121249253731343 -1.5681597014925381
C 0.6114477611940299 -1.614449253731343 -0.2582597014925381
H -0.4544522388059702 -1.954049253731343 1.5506402985074619
C -0.6479522388059701 -1.8270492537313432 -2.2998597014925384
H -2.74345223880597 -2.290549253731343 -2.092259701492538
C 0.5698477611940298 -1.5506492537313434 -1.6506597014925382
H 1.5072477611940298 -1.351949253731343 0.2991402985074618
H -0.7173522388059701 -1.7640492537313435 -3.3840597014925375
C 1.7791477611940298 -1.082849253731343 -2.4255597014925376
H 1.4739477611940297 -0.9102492537313429 -3.464259701492538
H 2.1252477611940295 -0.1337492537313434 -2.0010597014925384
C 1.3965477611940298 2.0964507462686566 1.997440298507462
H 1.51704776119403 1.8448507462686567 3.057640298507462
H 2.1256477611940294 1.5207507462686571 1.4165402985074618
C 3.94864776119403 -1.4275492537313434 -3.522959701492538
H 4.81734776119403 -2.087049253731343 -3.615159701492538
H 3.4305477611940303 -1.3641492537313429 -4.484459701492538
H 4.26984776119403 -0.441449253731343 -3.176459701492538
C 2.60904776119403 -3.4296492537313434 -2.8992597014925376
H 1.9825477611940296 -3.869549253731343 -2.119359701492538
H 2.06294776119403 -3.373349253731343 -3.845759701492538
H 3.5215477611940305 -4.019849253731343 -3.0234597014925377
C 3.7281477611940304 -2.060049253731343 -1.156659701492538
H 3.9048477611940298 -1.032549253731343 -0.8295597014925382
H 3.12924776119403 -2.623249253731343 -0.4404597014925382
H 4.68244776119403 -2.5769492537313434 -1.3005597014925383
C 3.1110477611940297 3.755250746268656 2.588740298507462
H 3.40124776119403 4.809350746268656 2.534540298507462
H 2.9823477611940303 3.461750746268656 3.634840298507462
H 3.86514776119403 3.1392507462686563 2.091540298507462
C 1.99744776119403 3.9574507462686572 0.40494029850746194
H 2.67914776119403 3.230350746268657 -0.04295970149253803
H 1.03214776119403 3.981150746268657 -0.10175970149253821
H 2.4399477611940297 4.958250746268657 0.368240298507462
C 0.7418477611940297 4.4992507462686575 2.475440298507462
H -0.18475223880597014 4.424250746268656 1.901240298507462
H 0.57844776119403 4.189650746268656 3.511940298507462
H 1.1210477611940297 5.524350746268658 2.4432402985074617
N 3.00114776119403 -2.025349253731343 -2.490159701492538
N 1.7831477611940298 3.586450746268657 1.862540298507462
C -3.55075223880597 -3.8435492537313434 0.6444402985074619
H -2.62515223880597 -2.2736492537313433 1.7424402985074618
H -4.67195223880597 -1.3478492537313436 1.5102402985074619
H -4.83415223880597 -1.6757492537313432 -0.1945597014925382
H -3.7169522388059697 0.17335074626865676 -0.900559701492538
H -3.9132522388059705 -4.043149253731343 -0.34225970149253815
H -4.35435223880597 -3.9354492537313432 1.3449402985074619
H -2.78115223880597 -4.545049253731343 0.8904402985074619
H -5.24235223880597 1.138950746268657 1.5249402985074618
H -5.92805223880597 0.6501507462686567 -0.006059701492538094
H -4.89895223880597 2.059650746268657 0.08004029850746197
C -1.558632352485546 2.15249385472759 -3.8466326277442437
O -1.1702999789176782 1.046996593862342 -4.191377856077543
O -2.425704699940008 2.8160337160831617 -4.426746289686486
O -1.1446340532810229 2.7787819633651107 -2.864279840994494
O -2.0772768535915134 7.002992431129114 2.4565469056636653
H -2.661473575776668 6.288921588743666 2.7528311926973488
H -2.571436154934081 7.42717936216969 1.739027584160055
O 1.180988671889318 -5.678346551365875 5.871469238283108
H 1.3655217465535827 -4.7626655697205145 6.129235103183687
H 0.6876027798212149 -5.593066579888909 5.0418550916624945
O -5.6796569734356135 -8.07104824895165 1.6080054862602835
H -5.648119788884437 -8.373370721648538 0.6879109881824903
H -6.495224244479126 -7.549921296524726 1.6553200734069822
O -6.2033288573824645 2.8228156006253107 -5.628549368058948
H -5.305015829965347 3.044403273700379 -5.916472907933461
H -6.1977860069714765 1.8557367695012563 -5.567806010388717
O 7.287703677632438 1.0291375326920806 3.689349878926938
H 6.635775213358131 0.8926676393683053 4.393148573572746
H 7.341757924926182 0.1671457498177431 3.250020561777915
O 10.868713939449718 -3.791424119410304 -2.804295264852892
H 10.362830223768025 -3.7675994875469523 -3.6304195957042853
H 11.056402888509448 -2.8592456492986402 -2.6178063843234347
O 9.63035986077216 5.190967647125756 -3.1173688673569844
H 9.67750916865408 4.901299695794503 -4.040860490295608
H 10.271828310460052 4.625462121711227 -2.6616456255965404
O -5.80809181929941 -6.285481363455144 5.61013888106968
H -4.914160104528728 -5.912461965885508 5.583493520048767
H -5.846909282101863 -6.739384755881812 6.465373854176569
O 6.58756030724585 2.186096350968991 0.05522764395486579
H 6.374924367310987 1.7107163726386498 0.8723978772298322
H 5.791806007420183 2.7087111823085017 -0.1253568976674338
O -2.647912867647727 9.888985975538043 3.886435209494934
H -2.1813742010531962 10.402065426742864 4.5632354061730656
H -3.1137679492983654 9.205215992647354 4.390815619203658
O 6.491988079239791 -3.6643181786250008 -5.494986916707318
H 6.2444709172310535 -3.905475182951689 -6.4002746669145765
H 5.708814690471583 -3.208473017895723 -5.151757289686249
O -3.550943433985305 -0.07754708124919318 -3.9191723610311944
H -3.241975532016363 -0.9290097365609855 -3.5749085972361896
H -3.117673585039548 0.5761538223104308 -3.350037657309965
O -5.942364537953635 -4.571786635567538 2.605696734764344
H -5.903705784559065 -4.524230352829042 3.5727599476196756
H -6.684363201671008 -5.169795289262533 2.430238541887717
O -5.307452440878145 1.2997447555465138 7.09310160002123
H -4.579748431314248 1.648766101251439 6.556819648425848
H -5.8451562103450225 0.7996046605039036 6.460886062461547
O 8.06164775513606 -3.6986868566243123 -1.4266005603258651
H 7.2555549579823095 -3.491914140081451 -0.9301866171591457
H 8.692867525052609 -3.0213908882899823 -1.1406045504855864
O -2.054455780899386 -1.9762747491670782 -8.083937224115784
H -1.6779206460186007 -2.8681667423943087 -8.125377802266522
H -1.869353848366531 -1.6859197244297823 -7.178181639820327
O -8.201678506593046 2.000196913133956 -2.2598068058627305
H -8.067057122184105 2.1462726757806885 -3.2082298714442232
H -7.4021744157695935 1.5298156334610877 -1.9796343504180878
O 0.8414495485844062 0.07284378244918707 -6.823473303520481
H 0.8747227776495354 -0.10239074466666953 -7.775919160057252
H 1.0222767409198965 -0.78957264966344 -6.420358718775412
O 3.190537516305981 -6.865601353851098 -5.275441835241841
H 2.9595568661849736 -6.475889804621723 -4.418855467986958
H 4.158915995485779 -6.835524495686711 -5.292775270111504
O -1.1352410698286919 4.789595858811974 -7.38185189316361
H -0.7910486835439547 5.450990673906105 -8.000766957360806
H -0.3395684007289721 4.398982878796058 -6.990331206876393
C -12.64515487992772 0.9118050858051894 4.611796780880526
O -12.322033423618795 1.3450930436595598 3.5437741559557585
O -12.968276336236643 0.4785171279508189 5.679819405805293
O 2.810824113715191 6.029369411422458 11.79556881992859
H 2.6790129507725817 6.508777061758885 12.627290816164486
H 2.7233714026663844 6.713348535032754 11.114770372445411
O 0.8502958211862108 6.337833026500624 -6.2138410848670995
H -0.07063811113108298 6.629567786524953 -6.289596474115351
H 1.0928693073640718 6.562660062963546 -5.3030321851637545
O 6.70621685250685 5.024031845978923 -13.825869147642056
H 6.702112979663072 5.490283690436109 -14.67531586914256
H 5.808953297253429 4.665848899550063 -13.751136065265316
O -1.0761718275474168 13.291441311954527 7.723642504140964
H -1.1257246975812043 13.185226238839963 8.685531389727384
H -1.6358750791844123 12.578819178711639 7.380329367748937
O 17.107620995976742 -3.873651142921382 8.109192448343466
H 17.069619516945174 -3.7839276429959607 7.145100679862609
H 17.10943979451045 -4.831583463399043 8.255220889601251
O -5.544171566242515 -9.517158515684706 -9.443766916933933
H -6.420348889261806 -9.19592728046753 -9.704709724935217
H -5.560148263354904 -10.457231585740647 -9.678222269623902
O 7.890084331991967 13.67352033589606 -2.320448737034047
H 7.801055996045527 13.460987627331493 -3.2616560256207947
H 8.382416904437358 14.508107211409738 -2.314504863749775
O 9.53662578765328 7.294863037053026 -8.370882470816031
H 8.646836916114385 7.53564739861217 -8.072108288172856
H 10.025353731115073 7.138916460361251 -7.548819452065205
O -10.37430114283572 -1.1788018728934295 3.0796948050412745
H -9.846195259952994 -1.8866948433350925 2.6809980835047957
H -10.541909169671804 -1.4913412653257334 3.9814645216641833
O 10.806439754808904 -1.1680887267593132 -18.69292308251302
H 10.979113005406324 -0.9260291467425743 -17.770665816263385
H 11.113712273775878 -2.0849311364500887 -18.755736609560167
O -5.117645219901818 5.742682526260597 -11.564520005420675
H -5.737775643476036 5.7365054138818525 -10.81996143959773
H -5.513998900520383 6.363565415936617 -12.194099342333564
O -10.886224755554466 -6.745603439038247 1.7935578137971937
H -10.58651839842113 -7.192743574731725 2.599292978380374
H -10.070935922753517 -6.5966116736607034 1.2914945535801676
O -12.058493020135142 12.199488668112211 3.801466445544176
H -11.621406519457569 12.538223986715465 4.597193240214425
H -11.553444812946307 11.403290249962819 3.5779573145187347
O 5.620182881277258 14.71058592050968 -7.215142253594976
H 5.590755727421583 14.70191663642239 -6.246624704435764
H 6.1610359025950965 15.486475401555667 -7.425939470923746
O 8.05481356037889 -5.801891179022369 2.822456743860436
H 7.573519679486423 -5.805400589563924 1.9814387647701428
H 8.399432861228163 -4.898851325285853 2.891148114102181
O 8.229330544888933 -1.9725123788455754 3.7674861443987786
H 8.182032454288786 -1.8077343521958957 4.721204367701143
H 8.417261908438077 -2.9209146006261943 3.702856641722789
O -8.104308591528985 -0.5651318466149338 -10.341749033207849
H -8.43739914035499 0.3440131879962305 -10.380133264666338
H -7.232748548177431 -0.5130240304115472 -10.762022528236441
O -3.6493467503333052 14.723390181786645 5.6735898101653
H -2.6914571656527495 14.741161995185541 5.528334644649475
H -4.017534600389737 15.07789257452882 4.850347619245219
O 13.568634717162912 16.125739740278934 10.15341262290506
H 13.38653745285686 17.05590334567015 10.354915998653148
H 13.030040886478249 15.946602450470571 9.368053812393246
O -7.992592635185564 5.330886250198129 12.214733981496979
H -8.908420093857096 5.1467571823133555 11.957199694064942
H -7.530253394165699 4.495700195997301 12.048395094336984