194

C -5.0710522388059704 1.0783507462686561 0.47044029850746183
C -3.8153522388059704 0.1782507462686569 0.19534029850746193
C -4.11845223880597 -1.3219492537313435 0.5608402985074619
C -2.96945223880597 -2.3874492537313436 0.7034402985074619
C -2.52015223880597 0.7359507462686565 0.7384402985074618
C -2.20305223880597 0.7852507462686571 2.097440298507462
C -1.5755522388059702 1.205650746268656 -0.18965970149253808
C -0.9533522388059701 1.2695507462686564 2.508640298507462
H -2.91125223880597 0.4298507462686567 2.840840298507462
C -0.32655223880597006 1.6562507462686575 0.21554029850746192
H -1.7850522388059702 1.178550746268657 -1.2573597014925382
C 0.004447761194029898 1.6956507462686563 1.569740298507462
H -0.7158522388059702 1.2676507462686573 3.5705402985074617
H 0.3943477611940298 1.9193507462686572 -0.5551597014925382
C -1.76045223880597 -2.1592492537313435 -0.1734597014925381
C -0.5287522388059701 -1.936549253731343 0.464840298507462
C -1.8068522388059702 -2.121249253731343 -1.5681597014925381
C 0.6114477611940299 -1.614449253731343 -0.2582597014925381
H -0.4544522388059702 -1.954049253731343 1.5506402985074619
C -0.6479522388059701 -1.8270492537313432 -2.2998597014925384
H -2.74345223880597 -2.290549253731343 -2.092259701492538
C 0.5698477611940298 -1.5506492537313434 -1.6506597014925382
H 1.5072477611940298 -1.351949253731343 0.2991402985074618
H -0.7173522388059701 -1.7640492537313435 -3.3840597014925375
C 1.7791477611940298 -1.082849253731343 -2.4255597014925376
H 1.4739477611940297 -0.9102492537313429 -3.464259701492538
H 2.1252477611940295 -0.1337492537313434 -2.0010597014925384
C 1.3965477611940298 2.0964507462686566 1.997440298507462
H 1.51704776119403 1.8448507462686567 3.057640298507462
H 2.1256477611940294 1.5207507462686571 1.4165402985074618
C 3.94864776119403 -1.4275492537313434 -3.522959701492538
H 4.81734776119403 -2.087049253731343 -3.615159701492538
H 3.4305477611940303 -1.3641492537313429 -4.484459701492538
H 4.26984776119403 -0.441449253731343 -3.176459701492538
C 2.60904776119403 -3.4296492537313434 -2.8992597014925376
H 1.9825477611940296 -3.869549253731343 -2.119359701492538
H 2.06294776119403 -3.373349253731343 -3.845759701492538
H 3.5215477611940305 -4.019849253731343 -3.0234597014925377
C 3.7281477611940304 -2.060049253731343 -1.156659701492538
H 3.9048477611940298 -1.032549253731343 -0.8295597014925382
H 3.12924776119403 -2.623249253731343 -0.4404597014925382
H 4.68244776119403 -2.5769492537313434 -1.3005597014925383
C 3.1110477611940297 3.755250746268656 2.588740298507462
H 3.40124776119403 4.809350746268656 2.534540298507462
H 2.9823477611940303 3.461750746268656 3.634840298507462
H 3.86514776119403 3.1392507462686563 2.091540298507462
C 1.99744776119403 3.9574507462686572 0.40494029850746194
H 2.67914776119403 3.230350746268657 -0.04295970149253803
H 1.03214776119403 3.981150746268657 -0.10175970149253821
H 2.4399477611940297 4.958250746268657 0.368240298507462
C 0.7418477611940297 4.4992507462686575 2.475440298507462
H -0.18475223880597014 4.424250746268656 1.901240298507462
H 0.57844776119403 4.189650746268656 3.511940298507462
H 1.1210477611940297 5.524350746268658 2.4432402985074617
N 3.00114776119403 -2.025349253731343 -2.490159701492538
N 1.7831477611940298 3.586450746268657 1.862540298507462
C -3.55075223880597 -3.8435492537313434 0.6444402985074619
H -2.62515223880597 -2.2736492537313433 1.7424402985074618
H -4.67195223880597 -1.3478492537313436 1.5102402985074619
H -4.83415223880597 -1.6757492537313432 -0.1945597014925382
H -3.7169522388059697 0.17335074626865676 -0.900559701492538
H -3.9132522388059705 -4.043149253731343 -0.34225970149253815
H -4.35435223880597 -3.9354492537313432 1.3449402985074619
H -2.78115223880597 -4.545049253731343 0.8904402985074619
H -5.24235223880597 1.138950746268657 1.5249402985074618
H -5.92805223880597 0.6501507462686567 -0.006059701492538094
H -4.89895223880597 2.059650746268657 0.08004029850746197
C 1.299173246706392 3.4435327366155177 -2.3273629593556877
O 0.2865113132672026 3.259280871516231 -2.984890568943784
O 2.0739878781129972 2.5575206552891876 -1.948844343166165
O 1.7058695432842903 4.544532843800567 -1.938717528753022
O -2.2137608728314033 0.6983244306561374 -4.552367582271225
H -2.91108509000004 0.05069194660033638 -4.734791425685025
H -1.9656627115096348 1.028325324692351 -5.429013837373051
O 6.425055229335621 1.181863227094721 -0.22952725852501343
H 6.042116204797555 0.8775869054641572 0.6069779599170531
H 6.764494583250794 2.0658260753271125 -0.023729901256929864
O -3.142620598753007 2.8502805718366817 2.7621020830908423
H -3.117623257807921 2.7580971619797756 1.7978175250931367
H -3.2078899119005158 3.8065817603401957 2.9041932437167484
O 5.5163123530796785 4.132789815803405 8.370716288245386
H 4.604624112070969 3.867942370866872 8.176686035405694
H 5.422871977260524 4.996840791934846 8.799256544362684
O 0.4213227844252838 -8.962502476784085 -2.9893725007556973
H -0.18701113990605656 -9.196332501588461 -3.7064643448786216
H 1.2124798002149855 -9.491424005603442 -3.171785595181856
O -0.5779907561567121 -1.2058388222018825 12.497647948206598
H -0.25371744949770836 -0.39539881414114775 12.918363021412864
H -0.29502042387575234 -1.1198855966459913 11.574879408232821
O 2.04813502331412 -3.8562080981076474 5.517991196713486
H 2.255861866797862 -4.799610561335717 5.594206075651222
H 1.15843469718618 -3.842697456292236 5.134308076749142
O -6.17070464908712 4.276194491270678 7.478360089164292
H -6.182905695689093 4.343375755460792 8.444954714177092
H -5.808052811148736 5.126965879643191 7.189165287228615
O -1.5212061850517848 -7.843478633726662 -0.4478237914008394
H -0.681651388236272 -8.321029488213096 -0.36997598203319537
H -1.4683000568862652 -7.163354237138855 0.2403576462074435
O 1.4780952391983047 4.672303280712788 6.858967463611239
H 1.4298731653749381 4.592003971177117 5.894501803577524
H 0.5507917651450565 4.71450221034653 7.136977286542987
O -9.125785600199073 -1.9596117591430309 4.438257587830917
H -9.123282042444517 -2.3265269316602453 5.33510447848463
H -9.220916541019339 -2.7369601701004282 3.867607523097143
O 6.453687077781732 4.375581020185524 -0.14113346346542688
H 6.064274245569186 5.2626074951031745 -0.16369528527506927
H 5.712616067906549 3.8007512519964664 0.10247778468681235
O -3.9773377915414025 -2.4266256644088493 6.538287502100223
H -4.040644812076087 -2.5253820456434433 5.576410818103533
H -4.80303992244689 -2.8119526571644977 6.867985915763417
O -2.084688431430113 -4.188476037450905 -5.5021826678939085
H -2.613610247434398 -4.587976098679443 -6.209012753935189
H -1.17423198999653 -4.436539694793143 -5.72239945757646
O -9.958954257297368 1.085219104052877 -5.015058764750589
H -9.34501661290551 1.7250091427792311 -4.624269010477136
H -9.42166159442656 0.2875918624219249 -5.133672938159126
O 1.4862214004946726 2.4761436951783695 8.774354097758488
H 1.5613687052957286 2.9907080571987814 7.956708846552523
H 2.235776075772349 2.7767929566289897 9.309834960776554
O -2.5626921360890997 4.8841213595971 -7.996532938947077
H -3.2662076817830474 5.49863288369462 -8.254232028232027
H -2.189469393879266 4.588413561369077 -8.840466364677155
O -5.778829040039719 7.095083500013474 4.702199117130332
H -5.760056746626553 7.4698447827579155 3.808796106806462
H -5.078456451494269 6.425539291740751 4.689921711761272
O -6.483877901402192 -4.0916770241388605 -3.9284167260047127
H -7.165206240957904 -3.7969525756714746 -3.305603310852265
H -6.191163237536075 -4.942857395478991 -3.56956850557855
O -9.414705076305415 1.017761179533451 0.07755852157009313
H -8.6948849208574 1.0248614867156758 -0.5711138813797416
H -9.920876215669585 1.818654212504606 -0.1257222490724903
C -1.1840178632358844 15.048525121175949 7.8192066974134065
O -0.626136133051836 15.92575442947351 7.2258644916917545
O -1.7418995934199346 14.17129581287839 8.412548903135058
O 9.143691150627006 -12.794835323561822 0.954927223156008
H 9.024463189444031 -12.893393554147828 -0.0016491331041221802
H 9.323404154010976 -11.849903400041018 1.0722679263496926
O 6.37144347881417 -1.7475643271075998 -10.212707365607896
H 6.142770032121508 -2.650904947430065 -9.946903800257235
H 6.568926854500681 -1.300313629290602 -9.376089726581759
O 3.845918035494555 -9.56001078853486 17.70718704379663
H 4.127108821102778 -9.577587305808802 16.780046188786155
H 4.569799528141382 -9.997878199092064 18.17965890504906
O -1.8324964451258277 14.636217211460497 -5.399753759897435
H -1.6120595071082668 14.711826145509288 -4.459191054731295
H -1.024302700005446 14.28410280844119 -5.801997792587352
O -12.853118160290421 17.306319654153086 7.593830285339
H -12.336364612945694 16.904871089127607 8.308513556337857
H -12.218496064589262 17.88159670107239 7.140759585297968
O 6.837906958704724 -12.340440304402932 6.3112803508910105
H 6.6886808841245315 -13.049412317377053 6.954753443090526
H 7.401099867673329 -12.750418295388243 5.6377124341260165
O -7.097543042137267 -13.069712818692478 -10.23395855726865
H -6.183735849302605 -12.764273084688432 -10.337062098018599
H -7.6168805388679734 -12.251872366791066 -10.21427343539521
O 6.211264255735525 -9.240564740748475 -14.607346477056307
H 6.828669414298622 -8.992169042706488 -15.311674386679314
H 6.543153386987719 -10.09610827949312 -14.296128222178876
O 10.293062170914931 1.7705640777064442 -1.6637123576688309
H 9.548868331354686 1.1993765355464123 -1.9063801918409018
H 9.877306250785283 2.5110585106466052 -1.1970465736629978
O 4.005248470014298 -4.752015824613946 -15.68948804495262
H 4.481541118827536 -4.014037613038365 -16.098756696117327
H 3.127762098428252 -4.720307591553729 -16.09933460152832
O -0.648164607490084 17.137734827883907 -11.130060755781013
H -1.5092041933515858 17.58216484000755 -11.137816579607662
H -0.2997143577506314 17.317962156626344 -10.24402324092576
O -10.179947218249284 -9.474941804409234 10.181302663216927
H -10.533946400489851 -8.682160354911824 9.751012634043812
H -10.969750986731649 -9.966993493500087 10.451593408256212
O -11.730815884923052 3.426638965509519 10.792844955064751
H -12.341891721062652 2.736269643469492 10.49461035182045
H -11.852033974065538 4.140594600221946 10.14900066424047
O -15.407749388633496 -4.540444240611202 2.286678018059341
H -16.34110399042203 -4.285685923035334 2.3406663857516627
H -15.082081750290138 -4.429539502344678 3.1925492410628595
O -10.409513637723641 -9.997559586157493 0.5146969631932861
H -10.500487170919133 -9.997283699332485 -0.4500263634887166
H -11.08851257607111 -10.620899450131258 0.8136447847343995
O -7.686490071686167 -7.57399141663249 -7.589264076001822
H -8.18306448471929 -8.101857499782405 -6.9460389152060245
H -8.36293667894702 -7.025082449821595 -8.013623449622667
O -12.400519778408029 1.387681542087317 -4.779105283736616
H -12.755651038224258 1.242511412738339 -3.8892880110642203
H -12.595468743501517 0.5615871136325836 -5.246571689572399
O 1.2003177216426022 -7.934660920682806 -10.585873838479792
H 1.0749655451586468 -7.3176378697677755 -9.849302902730733
H 0.617979922751178 -8.678420626625376 -10.369850385821263
O -6.82264029324091 18.146159138136735 14.936677211228742
H -6.7497871234709175 18.119526057577396 15.902570813844674
H -6.786505091446894 17.214297972558654 14.67344545102727
O 9.598999617877542 16.2710071093805 -16.579352383787107
H 9.593350144899663 16.241027660275947 -15.610829450147193
H 9.094208824736338 15.48626929296359 -16.84076156293944