194

C -5.0710522388059704 1.0783507462686561 0.47044029850746183
C -3.8153522388059704 0.1782507462686569 0.19534029850746193
C -4.11845223880597 -1.3219492537313435 0.5608402985074619
C -2.96945223880597 -2.3874492537313436 0.7034402985074619
C -2.52015223880597 0.7359507462686565 0.7384402985074618
C -2.20305223880597 0.7852507462686571 2.097440298507462
C -1.5755522388059702 1.205650746268656 -0.18965970149253808
C -0.9533522388059701 1.2695507462686564 2.508640298507462
H -2.91125223880597 0.4298507462686567 2.840840298507462
C -0.32655223880597006 1.6562507462686575 0.21554029850746192
H -1.7850522388059702 1.178550746268657 -1.2573597014925382
C 0.004447761194029898 1.6956507462686563 1.569740298507462
H -0.7158522388059702 1.2676507462686573 3.5705402985074617
H 0.3943477611940298 1.9193507462686572 -0.5551597014925382
C -1.76045223880597 -2.1592492537313435 -0.1734597014925381
C -0.5287522388059701 -1.936549253731343 0.464840298507462
C -1.8068522388059702 -2.121249253731343 -1.5681597014925381
C 0.6114477611940299 -1.614449253731343 -0.2582597014925381
H -0.4544522388059702 -1.954049253731343 1.5506402985074619
C -0.6479522388059701 -1.8270492537313432 -2.2998597014925384
H -2.74345223880597 -2.290549253731343 -2.092259701492538
C 0.5698477611940298 -1.5506492537313434 -1.6506597014925382
H 1.5072477611940298 -1.351949253731343 0.2991402985074618
H -0.7173522388059701 -1.7640492537313435 -3.3840597014925375
C 1.7791477611940298 -1.082849253731343 -2.4255597014925376
H 1.4739477611940297 -0.9102492537313429 -3.464259701492538
H 2.1252477611940295 -0.1337492537313434 -2.0010597014925384
C 1.3965477611940298 2.0964507462686566 1.997440298507462
H 1.51704776119403 1.8448507462686567 3.057640298507462
H 2.1256477611940294 1.5207507462686571 1.4165402985074618
C 3.94864776119403 -1.4275492537313434 -3.522959701492538
H 4.81734776119403 -2.087049253731343 -3.615159701492538
H 3.4305477611940303 -1.3641492537313429 -4.484459701492538
H 4.26984776119403 -0.441449253731343 -3.176459701492538
C 2.60904776119403 -3.4296492537313434 -2.8992597014925376
H 1.9825477611940296 -3.869549253731343 -2.119359701492538
H 2.06294776119403 -3.373349253731343 -3.845759701492538
H 3.5215477611940305 -4.019849253731343 -3.0234597014925377
C 3.7281477611940304 -2.060049253731343 -1.156659701492538
H 3.9048477611940298 -1.032549253731343 -0.8295597014925382
H 3.12924776119403 -2.623249253731343 -0.4404597014925382
H 4.68244776119403 -2.5769492537313434 -1.3005597014925383
C 3.1110477611940297 3.755250746268656 2.588740298507462
H 3.40124776119403 4.809350746268656 2.534540298507462
H 2.9823477611940303 3.461750746268656 3.634840298507462
H 3.86514776119403 3.1392507462686563 2.091540298507462
C 1.99744776119403 3.9574507462686572 0.40494029850746194
H 2.67914776119403 3.230350746268657 -0.04295970149253803
H 1.03214776119403 3.981150746268657 -0.10175970149253821
H 2.4399477611940297 4.958250746268657 0.368240298507462
C 0.7418477611940297 4.4992507462686575 2.475440298507462
H -0.18475223880597014 4.424250746268656 1.901240298507462
H 0.57844776119403 4.189650746268656 3.511940298507462
H 1.1210477611940297 5.524350746268658 2.4432402985074617
N 3.00114776119403 -2.025349253731343 -2.490159701492538
N 1.7831477611940298 3.586450746268657 1.862540298507462
C -3.55075223880597 -3.8435492537313434 0.6444402985074619
H -2.62515223880597 -2.2736492537313433 1.7424402985074618
H -4.67195223880597 -1.3478492537313436 1.5102402985074619
H -4.83415223880597 -1.6757492537313432 -0.1945597014925382
H -3.7169522388059697 0.17335074626865676 -0.900559701492538
H -3.9132522388059705 -4.043149253731343 -0.34225970149253815
H -4.35435223880597 -3.9354492537313432 1.3449402985074619
H -2.78115223880597 -4.545049253731343 0.8904402985074619
H -5.24235223880597 1.138950746268657 1.5249402985074618
H -5.92805223880597 0.6501507462686567 -0.006059701492538094
H -4.89895223880597 2.059650746268657 0.08004029850746197
C 0.20386990153849294 -4.6980925755615015 0.5444817649672258
O -0.27644100271546035 -5.718107964046245 1.0142109860181079
O 1.3681799771996492 -4.316711273794565 0.7104992775268055
O -0.4000544842599171 -3.889377794197734 -0.1695939474343131
O 4.0816021069552875 -3.2983665299985363 -9.712307001476427
H 4.339565051112859 -2.757191712500426 -8.951023681517658
H 4.002719524252743 -4.192700065850639 -9.347742865697207
O 0.5318036185407453 3.38183466775787 -7.325456345823726
H 0.5148158785609607 4.01199995563961 -8.061371071548999
H 1.3456038501043386 3.601838821204754 -6.847660050449681
O -2.381857922138231 5.765416940909099 -1.1268326493037084
H -3.2528628966001962 6.1538993772936195 -1.2982942717830865
H -2.308076630806179 5.0570283084737655 -1.783874360906382
O 2.0797456034499353 4.713730904822717 6.425615716165078
H 1.8390253473593314 4.152797842450319 5.673036673974028
H 2.592800916860256 4.126339857778968 7.000687839932423
O -7.438117042064299 -7.8996658905488 -2.7058982186260474
H -7.520731967941551 -8.75599472616074 -2.2599800016604323
H -6.531671194825649 -7.619589378643911 -2.5087307319478493
O -7.718646380363657 -6.790026024559265 7.749080985769734
H -7.388418504480216 -7.61444097031163 8.13671084028256
H -7.044720262049453 -6.552749467964075 7.094493048939029
O 1.6761012886351239 -7.572625435551523 -2.9473570024206808
H 1.3669372301246918 -8.225784652970772 -3.5929326978473557
H 1.0950227679291609 -6.810247543868034 -3.089094955511613
O -6.817477887941951 1.7815224316741143 -2.563178604033597
H -6.859901725358282 0.887424076937577 -2.1920240446162413
H -6.767223894482054 2.3560502994462524 -1.7844911124206058
O -2.312767827966617 -1.2054096834636563 -8.189515489468576
H -2.5440537997286787 -1.7872109462795054 -7.44993354894274
H -2.1272854006309276 -1.8161331978420883 -8.918607392067226
O 2.3917795342682875 2.7127406814165367 -2.142945046306032
H 1.944668710114314 3.445359950993721 -2.5927541988013414
H 3.258237519214209 2.6670706563366138 -2.574369145578027
O -8.726458209400047 -1.7755017426273758 -7.920439728838681
H -8.743523827607461 -1.3843904743537827 -7.034037959095061
H -9.65720368976286 -1.78545024226875 -8.189838731136541
O -3.379982441083728 -3.9713313184369885 -5.815339864571831
H -3.4788675663296456 -4.744654991134297 -5.239875194803959
H -3.1393363439292843 -4.348451402643338 -6.674893145242978
O 4.592284892629075 -3.172620311079566 1.4724439921325625
H 5.212484656617244 -3.502884037623798 0.8051768188217987
H 4.8590550026819 -3.6274541518867167 2.2854149817373695
O -1.7032011842057155 -10.146665241107726 -2.2699783466649333
H -2.1334440367995016 -9.319677234131772 -2.534457610521108
H -2.099640241203756 -10.352132248333847 -1.4099892029380812
O 9.724721580138787 0.018609176265949934 -1.474363830262429
H 9.697883164184947 0.2506300672544137 -0.5339312901650499
H 8.791348298125186 -0.05638329048527346 -1.7236676422142811
O 3.0554886603587614 9.077167527312941 -5.883667524950653
H 3.955920611048588 9.321469338729027 -6.1454045762363565
H 2.984964641481587 9.388817546055654 -4.968865593995609
O -1.3989365138504164 0.8559567567102622 -3.577621110575555
H -0.49147593551882274 1.0018714341483959 -3.884527550035883
H -1.9125592241660612 0.7758577401598148 -4.395385014948731
O 1.5058143169362783 -8.817865496957403 -6.8151040200270625
H 1.4958476971027435 -8.64644639924038 -5.861435568033929
H 2.404446598154216 -8.577740890335269 -7.08669588431539
O -3.597871731308204 6.902505327102118 -4.904037523411155
H -4.005218790409945 6.669934369293912 -4.0561304059004355
H -3.653360292462787 6.085596699118182 -5.422249118617587
O 10.316925673616545 2.293975135260162 -1.6782632512583748
H 11.128534583751389 1.7752018998913837 -1.783774692129712
H 9.747125294513786 1.9863411916552907 -2.399131359178586
C -8.017131736445002 -9.549523031591624 -9.302269002215935
O -9.06372041334528 -9.148455670799523 -8.88201268662819
O -6.970543059544726 -9.950590392383726 -9.72252531780368
O 6.31386930850677 18.417364147820976 -9.152595825864507
H 5.907662245563682 18.190656104870143 -8.302556625488105
H 6.347119455613203 17.573919142981595 -9.628470699995187
O -10.150157391244454 9.352446561515379 -11.336299501907247
H -10.1152740046223 9.429370269329311 -10.370984398216267
H -9.443488595895644 8.723702621441184 -11.54668537548302
O -2.451185820843449 16.076735320109336 11.45247663181009
H -2.5552504408574026 15.99130967879825 12.412080910441619
H -3.012295294188015 15.373418638247253 11.09266592013311
O -10.348644967009662 -9.209379566312919 -1.35798631571705
H -10.641990160006536 -8.916421973100713 -0.48214854350981184
H -9.700358383412864 -8.539994564973538 -1.6237120574325814
O -12.048072797736445 -7.094356569931476 -9.304180684102407
H -11.712420466837585 -6.980388831256478 -8.402340219162253
H -11.723663925807688 -6.31217464200299 -9.775256325306646
O -0.29583469413898866 12.03737202189896 13.63938102664947
H 0.2834326472052848 12.23201989021295 14.391397589972886
H 0.005628318822706202 12.645811807079554 12.948090187765107
O -1.9695443238724735 -21.17726856245467 5.837604777641996
H -1.589401720707399 -20.38051409738746 6.237156126725373
H -2.5352268675244103 -21.54168706245168 6.5348596528256735
O -0.0578599124995971 7.806260159447547 -16.246468314791535
H -0.12673031058596762 8.700502670085955 -16.613285104667
H 0.5397682593515671 7.908708656869474 -15.490619905462108
O 0.5285722562452035 9.047734787267219 2.774995148196406
H 0.6288357690774649 9.035281768863708 1.81127345225552
H 0.8791400596251602 9.912681511087206 3.035631531854603
O -0.2703668848234493 -12.200730746501089 12.562496931301183
H -0.1208400537523735 -11.607790847434007 13.314182610148507
H -0.9961098768702632 -11.782553412482146 12.07527339830247
O 3.2389942709909088 5.464460202496237 -3.9076270238855484
H 2.317266161802404 5.65307962030541 -3.6756628782571505
H 3.3644551131284546 5.917298553945326 -4.755069617131255
O 11.602280756097468 -8.987851376043919 9.663341056909196
H 11.474636424727336 -8.21615762861873 9.091359377347743
H 11.576418498034304 -9.739188633001639 9.051961130664374
O -9.184488197139114 -0.6233913328964771 13.464943295560499
H -9.472723234067427 -0.3965509800089617 14.361844279331171
H -10.002691880217608 -0.8811513055093994 13.014316538903312
O -5.753490404911493 -15.99227375955166 1.11814413656049
H -5.135653444268167 -16.111813413083922 0.3812892538349928
H -5.738240504469534 -16.845526812020253 1.5771524298292894
O 9.408608854901287 -1.7907579912546974 -7.6421604743385005
H 9.902254678917176 -2.3430632383941608 -8.266852455489124
H 8.690857879571992 -1.4179830910670304 -8.175859224106494
O 10.560502530718496 13.447684254424681 -0.38081400792408787
H 10.195400658915304 13.293906846023411 -1.26513323126552
H 10.376803422251726 14.383890196415242 -0.2112999494213233
O 12.52204024576173 4.49897344190368 2.862274888245364
H 12.328229081668107 4.523593833848925 3.8113789003921568
H 13.376697207914084 4.949227900305054 2.786154299478647
O 10.185207544232476 5.027230316144915 13.231478908748427
H 10.074316268520132 4.776974562942186 12.301940023139103
H 10.264365007738085 5.9926590239537925 13.20611258442184
O -1.8014821583135412 5.748911502429991 2.543440593726779
H -2.3343539489024323 5.548754489737526 3.3276294625362133
H -2.4490845158575514 6.061569235413092 1.8939652109682745
O -13.117629343742134 9.257105166723159 2.1200430378651336
H -12.609850032987733 8.44317312771179 1.9835067264290216
H -14.037430074283419 8.955041507656638 2.1611052621967564