194

C -5.0710522388059704 1.0783507462686561 0.47044029850746183
C -3.8153522388059704 0.1782507462686569 0.19534029850746193
C -4.11845223880597 -1.3219492537313435 0.5608402985074619
C -2.96945223880597 -2.3874492537313436 0.7034402985074619
C -2.52015223880597 0.7359507462686565 0.7384402985074618
C -2.20305223880597 0.7852507462686571 2.097440298507462
C -1.5755522388059702 1.205650746268656 -0.18965970149253808
C -0.9533522388059701 1.2695507462686564 2.508640298507462
H -2.91125223880597 0.4298507462686567 2.840840298507462
C -0.32655223880597006 1.6562507462686575 0.21554029850746192
H -1.7850522388059702 1.178550746268657 -1.2573597014925382
C 0.004447761194029898 1.6956507462686563 1.569740298507462
H -0.7158522388059702 1.2676507462686573 3.5705402985074617
H 0.3943477611940298 1.9193507462686572 -0.5551597014925382
C -1.76045223880597 -2.1592492537313435 -0.1734597014925381
C -0.5287522388059701 -1.936549253731343 0.464840298507462
C -1.8068522388059702 -2.121249253731343 -1.5681597014925381
C 0.6114477611940299 -1.614449253731343 -0.2582597014925381
H -0.4544522388059702 -1.954049253731343 1.5506402985074619
C -0.6479522388059701 -1.8270492537313432 -2.2998597014925384
H -2.74345223880597 -2.290549253731343 -2.092259701492538
C 0.5698477611940298 -1.5506492537313434 -1.6506597014925382
H 1.5072477611940298 -1.351949253731343 0.2991402985074618
H -0.7173522388059701 -1.7640492537313435 -3.3840597014925375
C 1.7791477611940298 -1.082849253731343 -2.4255597014925376
H 1.4739477611940297 -0.9102492537313429 -3.464259701492538
H 2.1252477611940295 -0.1337492537313434 -2.0010597014925384
C 1.3965477611940298 2.0964507462686566 1.997440298507462
H 1.51704776119403 1.8448507462686567 3.057640298507462
H 2.1256477611940294 1.5207507462686571 1.4165402985074618
C 3.94864776119403 -1.4275492537313434 -3.522959701492538
H 4.81734776119403 -2.087049253731343 -3.615159701492538
H 3.4305477611940303 -1.3641492537313429 -4.484459701492538
H 4.26984776119403 -0.441449253731343 -3.176459701492538
C 2.60904776119403 -3.4296492537313434 -2.8992597014925376
H 1.9825477611940296 -3.869549253731343 -2.119359701492538
H 2.06294776119403 -3.373349253731343 -3.845759701492538
H 3.5215477611940305 -4.019849253731343 -3.0234597014925377
C 3.7281477611940304 -2.060049253731343 -1.156659701492538
H 3.9048477611940298 -1.032549253731343 -0.8295597014925382
H 3.12924776119403 -2.623249253731343 -0.4404597014925382
H 4.68244776119403 -2.5769492537313434 -1.3005597014925383
C 3.1110477611940297 3.755250746268656 2.588740298507462
H 3.40124776119403 4.809350746268656 2.534540298507462
H 2.9823477611940303 3.461750746268656 3.634840298507462
H 3.86514776119403 3.1392507462686563 2.091540298507462
C 1.99744776119403 3.9574507462686572 0.40494029850746194
H 2.67914776119403 3.230350746268657 -0.04295970149253803
H 1.03214776119403 3.981150746268657 -0.10175970149253821
H 2.4399477611940297 4.958250746268657 0.368240298507462
C 0.7418477611940297 4.4992507462686575 2.475440298507462
H -0.18475223880597014 4.424250746268656 1.901240298507462
H 0.57844776119403 4.189650746268656 3.511940298507462
H 1.1210477611940297 5.524350746268658 2.4432402985074617
N 3.00114776119403 -2.025349253731343 -2.490159701492538
N 1.7831477611940298 3.586450746268657 1.862540298507462
C -3.55075223880597 -3.8435492537313434 0.6444402985074619
H -2.62515223880597 -2.2736492537313433 1.7424402985074618
H -4.67195223880597 -1.3478492537313436 1.5102402985074619
H -4.83415223880597 -1.6757492537313432 -0.1945597014925382
H -3.7169522388059697 0.17335074626865676 -0.900559701492538
H -3.9132522388059705 -4.043149253731343 -0.34225970149253815
H -4.35435223880597 -3.9354492537313432 1.3449402985074619
H -2.78115223880597 -4.545049253731343 0.8904402985074619
H -5.24235223880597 1.138950746268657 1.5249402985074618
H -5.92805223880597 0.6501507462686567 -0.006059701492538094
H -4.89895223880597 2.059650746268657 0.08004029850746197
C 1.4733797869307328 2.089616819472415 -2.774294636285625
O 2.503784110807551 1.8915778205043372 -3.399453002480686
O 0.6471974625062964 1.2219151066651062 -2.4690931151558995
O 1.0973509967556063 3.1883924190468425 -2.3500978480619397
O 1.535432287619127 -5.7263838674252145 3.140983971572185
H 1.9123867739819258 -4.844255665686103 3.004153756314448
H 1.8273822800548474 -5.9700003212590556 4.032262923213143
O -8.784017142798191 4.355348455651694 -4.689971657504023
H -8.696958745506645 4.310336641472441 -3.7259373588686877
H -8.144468888688383 3.7031924758219974 -5.0134412123889645
O 5.547147552759121 6.604936175397951 -9.544906336024592
H 5.95276838556755 7.463333103701342 -9.351015102671706
H 4.973061324963991 6.439664880627584 -8.781969676477495
O 0.8476115124678252 -3.967091560192159 -6.712089895129182
H 1.001583736556438 -4.574762863393363 -5.973174813150909
H 1.3106584960805128 -3.157365908844885 -6.449613601309296
O 4.974831994001109 2.15188155401186 -4.01398022237416
H 4.203107263916377 1.932169315048672 -4.557243353762102
H 5.522467184964161 1.3533508971712225 -4.0514826490225735
O -0.5476759487894403 7.105288555300886 -0.35554242738705755
H -0.029577595964475734 6.589546283379979 0.28050109522277245
H -0.03842311919871699 7.042858192301126 -1.17756794379732
O 6.358305827808017 0.35171158759087007 -6.6056549593910825
H 6.826163511147502 0.46673690972595727 -5.764913786194519
H 5.450698815841093 0.6277376205441669 -6.408117405339871
O 4.349104626708087 5.840122893845917 6.584509474063667
H 3.9830518570930975 5.897128608484545 7.479899375311017
H 3.9032493387598746 6.553442216437691 6.103520336425579
O -4.189808607403891 -8.140639862225541 -3.3413537102268247
H -4.000156100136478 -7.412155342150125 -3.9515254789917167
H -4.739445142299844 -8.745205190723501 -3.862278260796024
O -1.6438713484352205 3.4003742159640518 5.247789407408775
H -1.5958768596603723 2.945939058447449 4.393299750619354
H -0.7249807634535022 3.4192575874556694 5.554783634411602
O -3.823333972647799 -0.3625041414756228 8.361779290178298
H -4.237731890405632 -0.29061898471679837 7.488810649907792
H -4.4923992395551835 -0.010887524886207811 8.968144994894816
O -1.1977306538661576 -6.709244561734867 7.889758985013309
H -1.268444864490407 -6.630634622256697 6.926541805592683
H -2.0075011842968027 -6.29096249894439 8.218808750692931
O 6.279823898020055 -4.006632206027757 2.5960652904196735
H 6.967415903668339 -3.3645603853674992 2.828290112052922
H 5.637311251716219 -3.4882866832872366 2.0886627256897583
O 4.74154144969678 1.7231470745710264 -0.39347213816963134
H 4.598877573638031 2.6449318352892393 -0.13093217878142172
H 5.1709747763497 1.323845544736617 0.37795980991892514
O -0.4245846318204989 -1.3771116317504006 -8.053306335129113
H -0.48926726886376937 -1.1877448959714194 -9.00142223139156
H -0.38632795552389143 -0.5007284102134915 -7.641662289833515
O -0.4303011167411419 -4.509337996194775 4.421576257586185
H -0.7211474634867399 -3.6022658462439314 4.59932854102664
H 0.532965344670616 -4.469613580444422 4.519052610680475
O -2.3112246494681705 11.435580012676027 1.398514167495783
H -2.041949896502827 10.847657988572958 0.6768451589537747
H -2.399380843966212 10.8445939351976 2.1613548362453505
O -3.5392510520538285 -3.090174617890488 11.415285117104712
H -3.4150256798831404 -3.9554799653759356 11.833354572365609
H -3.6881121544711926 -2.489269812365482 12.160748550939024
O -5.829622520070338 -9.04213631008974 -1.3908979257623182
H -5.532109050515033 -9.949744157384124 -1.5543026009182608
H -6.227965587392068 -8.77143866226354 -2.231735322931402
O -1.0079867851011768 0.9455716871466207 6.904018272632192
H -1.3754624833419185 0.8184773500763007 6.016450811766745
H -1.7873505985615603 0.9645304808684334 7.479513324486767
C -12.006799186401672 3.0482481035555242 -3.8137851009979915
O -11.016523755556467 2.9145057001885992 -4.472788741280789
O -12.997074617246879 3.1819905069224492 -3.154781460715194
O -3.706679475437751 -17.431452437905786 10.977848817264155
H -4.50842789902981 -17.82020400157429 11.358688736275997
H -3.0155853918148523 -17.640093593161218 11.6242386224244
O 15.686710775900767 2.693651118564099 1.296410493635487
H 16.34108608316603 3.4075040680802955 1.26214271564332
H 15.078348576808501 2.9673463090004297 1.999225065018039
O -6.644884520436576 -6.56312283773744 2.17139275047363
H -7.288000432879768 -6.41997104639152 1.4608458873486034
H -6.13811851780998 -7.334602113186013 1.8764861713079477
O 1.6274343643644233 -1.384012766228019 -10.160793810979932
H 1.3476591286614505 -1.943242427564897 -10.901033880327969
H 2.2248060947957766 -0.738641502459469 -10.56773962049667
O -2.503574032819755 -8.231977980809901 -6.822791247158012
H -1.829486050600181 -8.920072975192081 -6.717444069534062
H -2.60187303908879 -7.862357363782906 -5.932465548812118
O -16.505018017584653 4.827609894153449 3.488974218743296
H -16.613173911533117 4.818362997218388 4.451878240129271
H -17.237246401197257 4.281300975073846 3.1659415524908736
O -8.049161834290368 -3.6752622544739673 -20.083630795821925
H -7.114968157440243 -3.447566657777056 -19.9636131043007
H -8.462443498431398 -3.417218993589353 -19.2460307206686
O 11.289878898004211 13.334480799247535 -2.328344426026596
H 10.32556846929166 13.388542547891035 -2.406766880144202
H 11.578873248914293 13.028135016163555 -3.2010393730892694
O 8.577068181268151 -10.754607073539836 2.4978243047945123
H 9.027155468932627 -11.150337747347525 1.7363874891685867
H 7.6421230638111854 -10.754896964279636 2.2431883143949998
O -11.69991232154188 -0.49942117664265395 6.735877198989337
H -12.020967531763086 0.3876386675858703 6.514482208876448
H -11.33403763932593 -0.4001109659161832 7.6276367760384645
O -6.423714562255191 7.8863852779803825 9.596614157429135
H -7.135863943303315 8.477948756086377 9.310496581345607
H -6.8588040230778695 7.025971569282685 9.693295878897612
O 8.54935193761927 11.127829673505143 -6.970171185427353
H 9.514252034424162 11.041174224005632 -6.949531583736687
H 8.377804678055735 11.6439508370497 -7.772139031776356
O 8.671108215139036 -7.523817550342059 -1.21885599661771
H 8.452176553843634 -7.011384479742667 -0.42610847518448824
H 8.809629877675977 -8.423042736427215 -0.8854377037510506
O 10.412363059096927 7.532163178544905 -10.390552352688976
H 10.346818310301634 7.473409234786653 -11.355549356258532
H 9.98592542870622 6.720446812691604 -10.077136601501088
O -3.5506489445555487 12.71144005136513 -7.140695720753553
H -3.384941258162656 13.272549389748924 -7.913136417473254
H -2.6920905022295987 12.299039941506189 -6.962466949790025
O 2.6292724922313377 22.26983641125618 -1.7752813469406004
H 2.060097296374352 22.858869867917026 -1.2575492344969774
H 2.2904463832668562 22.352052348994206 -2.6793827526279514
O 7.914520643001721 7.5576680722537155 4.824102104825399
H 7.436962963875013 8.264366170657057 4.364228407251584
H 7.91133215634783 6.8232408008824255 4.19198790555522
O 0.34476481034118045 5.744570935884928 -23.45853562078093
H 0.988830135504287 5.2720733415851795 -22.90999825906024
H 0.8204017355441966 6.53797409309413 -23.74705406007709
O -12.479794012275015 -9.956510104324716 10.872463663017797
H -12.565086079037705 -10.008408133898746 11.836309716479489
H -13.347418354182736 -10.23777339098652 10.545231468383172
O -7.066938622535677 -9.853797368366875 -5.006124323778229
H -7.631008951315646 -10.544637156263878 -4.627267611354547
H -6.749135299017974 -10.240100274227473 -5.83602374948279