194

C -5.0710522388059704 1.0783507462686561 0.47044029850746183
C -3.8153522388059704 0.1782507462686569 0.19534029850746193
C -4.11845223880597 -1.3219492537313435 0.5608402985074619
C -2.96945223880597 -2.3874492537313436 0.7034402985074619
C -2.52015223880597 0.7359507462686565 0.7384402985074618
C -2.20305223880597 0.7852507462686571 2.097440298507462
C -1.5755522388059702 1.205650746268656 -0.18965970149253808
C -0.9533522388059701 1.2695507462686564 2.508640298507462
H -2.91125223880597 0.4298507462686567 2.840840298507462
C -0.32655223880597006 1.6562507462686575 0.21554029850746192
H -1.7850522388059702 1.178550746268657 -1.2573597014925382
C 0.004447761194029898 1.6956507462686563 1.569740298507462
H -0.7158522388059702 1.2676507462686573 3.5705402985074617
H 0.3943477611940298 1.9193507462686572 -0.5551597014925382
C -1.76045223880597 -2.1592492537313435 -0.1734597014925381
C -0.5287522388059701 -1.936549253731343 0.464840298507462
C -1.8068522388059702 -2.121249253731343 -1.5681597014925381
C 0.6114477611940299 -1.614449253731343 -0.2582597014925381
H -0.4544522388059702 -1.954049253731343 1.5506402985074619
C -0.6479522388059701 -1.8270492537313432 -2.2998597014925384
H -2.74345223880597 -2.290549253731343 -2.092259701492538
C 0.5698477611940298 -1.5506492537313434 -1.6506597014925382
H 1.5072477611940298 -1.351949253731343 0.2991402985074618
H -0.7173522388059701 -1.7640492537313435 -3.3840597014925375
C 1.7791477611940298 -1.082849253731343 -2.4255597014925376
H 1.4739477611940297 -0.9102492537313429 -3.464259701492538
H 2.1252477611940295 -0.1337492537313434 -2.0010597014925384
C 1.3965477611940298 2.0964507462686566 1.997440298507462
H 1.51704776119403 1.8448507462686567 3.057640298507462
H 2.1256477611940294 1.5207507462686571 1.4165402985074618
C 3.94864776119403 -1.4275492537313434 -3.522959701492538
H 4.81734776119403 -2.087049253731343 -3.615159701492538
H 3.4305477611940303 -1.3641492537313429 -4.484459701492538
H 4.26984776119403 -0.441449253731343 -3.176459701492538
C 2.60904776119403 -3.4296492537313434 -2.8992597014925376
H 1.9825477611940296 -3.869549253731343 -2.119359701492538
H 2.06294776119403 -3.373349253731343 -3.845759701492538
H 3.5215477611940305 -4.019849253731343 -3.0234597014925377
C 3.7281477611940304 -2.060049253731343 -1.156659701492538
H 3.9048477611940298 -1.032549253731343 -0.8295597014925382
H 3.12924776119403 -2.623249253731343 -0.4404597014925382
H 4.68244776119403 -2.5769492537313434 -1.3005597014925383
C 3.1110477611940297 3.755250746268656 2.588740298507462
H 3.40124776119403 4.809350746268656 2.534540298507462
H 2.9823477611940303 3.461750746268656 3.634840298507462
H 3.86514776119403 3.1392507462686563 2.091540298507462
C 1.99744776119403 3.9574507462686572 0.40494029850746194
H 2.67914776119403 3.230350746268657 -0.04295970149253803
H 1.03214776119403 3.981150746268657 -0.10175970149253821
H 2.4399477611940297 4.958250746268657 0.368240298507462
C 0.7418477611940297 4.4992507462686575 2.475440298507462
H -0.18475223880597014 4.424250746268656 1.901240298507462
H 0.57844776119403 4.189650746268656 3.511940298507462
H 1.1210477611940297 5.524350746268658 2.4432402985074617
N 3.00114776119403 -2.025349253731343 -2.490159701492538
N 1.7831477611940298 3.586450746268657 1.862540298507462
C -3.55075223880597 -3.8435492537313434 0.6444402985074619
H -2.62515223880597 -2.2736492537313433 1.7424402985074618
H -4.67195223880597 -1.3478492537313436 1.5102402985074619
H -4.83415223880597 -1.6757492537313432 -0.1945597014925382
H -3.7169522388059697 0.17335074626865676 -0.900559701492538
H -3.9132522388059705 -4.043149253731343 -0.34225970149253815
H -4.35435223880597 -3.9354492537313432 1.3449402985074619
H -2.78115223880597 -4.545049253731343 0.8904402985074619
H -5.24235223880597 1.138950746268657 1.5249402985074618
H -5.92805223880597 0.6501507462686567 -0.006059701492538094
H -4.89895223880597 2.059650746268657 0.08004029850746197
C -1.177757533542402 3.730399983960778 -1.5987965253686258
O -1.4459089006884085 3.7117189613261923 -0.40735984543508774
O -1.393977151068323 4.677934166981402 -2.363034389586557
O -0.6486696725400092 2.8046485562573187 -2.224654906989356
O -6.762325287730059 4.485648947367074 7.2547691238629834
H -6.861304100912285 4.458527272491916 6.291215821656507
H -5.8893995002315815 4.09525523452465 7.4114703133711295
O 6.186764341952612 -4.0351793550075765 2.5959955123308784
H 5.970283703969725 -4.456903356791116 1.7508609925068452
H 7.107267159881689 -4.291770229298524 2.7566119178293134
O -3.270457672327388 8.371091817981478 -3.7812643218571234
H -2.5453490558198304 8.043454741767487 -3.228237380871022
H -3.274280685407299 7.770859746699998 -4.5419671478517
O -1.6269029047788723 -7.2878761456669645 4.0305053083310725
H -0.780801270541149 -6.851780560456748 4.21188894044934
H -1.8873946337345329 -7.658780242474441 4.886972560721449
O -3.2626832770108014 5.23482729485406 -6.446109874201346
H -3.280389045841303 5.211414589975989 -5.47755130194027
H -2.491020268571642 4.6970707826745866 -6.679167977075271
O 4.665044724750361 5.29563787701267 -8.64316658840605
H 4.661800320505659 5.309723450791844 -7.67427112069428
H 4.016250814304714 4.6124059299666245 -8.869490499216015
O 4.656941988814715 6.356188157558144 4.916129395690931
H 4.639134617635443 5.585364468911958 4.329204276571318
H 5.170672046708229 6.0561620489629355 5.681000434545157
O -7.256233634563686 -4.597233172482783 0.21662274833222717
H -6.854431498350097 -5.284452806023923 0.7691185180081394
H -6.646243692940638 -3.8483136613985085 0.29404226354642304
O 1.4218982750751348 -1.2692562540454608 -6.772064579841902
H 1.4464731351868747 -1.3105372858492217 -7.739876188350348
H 2.0948213399068507 -1.9083698422926294 -6.493370635818503
O 6.8547836035865775 6.500598393045823 -5.413235055273492
H 6.68761032965513 7.409669279435356 -5.122356082327714
H 6.09056987119775 6.004850823135552 -5.082820675355791
O -1.7082253843201602 -4.181002105382763 -2.946723420082084
H -2.20196772443996 -4.604011937133562 -3.665227797741111
H -1.056815365447791 -4.849078455056909 -2.6853789680293065
O 2.773579329093524 3.4809819650571296 9.513058765760704
H 2.014438535011231 3.1664497228674295 8.999500511729844
H 3.320236261217556 2.689681309761684 9.631259509369782
O 4.351334617752679 -0.8725701044886374 8.432159071499873
H 4.5140213669021625 -1.0233534268391735 7.488885639110245
H 3.691151959499613 -1.542297284085701 8.665796198153316
O -3.264171291078716 -9.889386529011656 -4.073992064991216
H -3.5115370705553035 -10.051784989336142 -4.996707767755712
H -3.388090132882677 -8.934774935767516 -3.962984087846103
O 1.6603954989697245 -3.8467989599831016 3.372337868371405
H 1.771965331740389 -4.526257807288939 2.690534961268957
H 1.2624339085069898 -3.101788737746098 2.897418627259043
O -8.868606311442958 -7.808974806865784 -0.9257318051217996
H -9.31778863830147 -7.882397647543259 -0.07027188168597603
H -8.310392722748619 -8.600028797160848 -0.96564568911278
O -5.051708633748623 1.9446866801005411 -7.010279481774861
H -5.510507952942534 1.5678756323388148 -6.244457063787561
H -5.717315860500362 2.5136659487230197 -7.425239185690419
O -0.5738494635099742 0.8533954097697343 -3.6292787921465015
H -0.17851518809755063 0.5651321627583025 -4.465689258369014
H -0.12936984596242662 0.310520633027949 -2.9609324817187854
O 2.812332564263873 7.476932813699312 7.848284275180909
H 3.1589150978495484 6.674483941826107 7.4300454530436575
H 2.0957006004479215 7.757048749159246 7.259271851340207
O -0.0516862773136787 -0.49767399303201243 7.944453868918543
H -0.15817292495476143 -0.7011088047874057 8.88585826031483
H -0.19641933365600328 0.45912326725634056 7.893923784745738
C -19.691182452741288 -13.936915244959119 6.24657722818503
O -20.20433382673854 -14.248356806551884 7.282192059276872
O -19.178031078744027 -13.62547368336635 5.210962397093189
O -11.319442087728085 -8.594294306647203 9.171781779455172
H -12.101218062877463 -8.785367652208368 9.711489717320934
H -10.577493131064065 -8.88357433234155 9.723860357865387
O -6.118546590069252 3.0659556268599992 -15.197571797360322
H -6.1697728794111475 3.045370854469671 -14.230142476259346
H -7.045148026905356 3.077816355873678 -15.480822648480897
O 0.8840495361719265 -4.67721588102528 -15.329944754298918
H 0.37097707901949484 -4.506533941248037 -14.525835504230592
H 0.6326428853935537 -5.57871363137488 -15.581059163202525
O 14.945238808700818 -0.019787818204948238 -8.481025304159758
H 14.977613554482005 -0.06134294180954747 -7.51345494266773
H 13.998519486348965 0.029628956703320775 -8.681630516812154
O -5.451199187783002 -9.433167442563098 14.66198295703299
H -5.473747126374225 -8.486305942444824 14.86670776490702
H -4.807915417489903 -9.501391863353188 13.940530696945501
O 0.8608044322965291 -16.1649858982104 5.65031368951984
H 0.8995580552791602 -16.171365483498803 4.682106679373111
H 0.5895984943521295 -17.066548129200132 5.8796493107750525
O 4.821791854161386 11.808663466602033 1.1634325353564208
H 5.085065260768135 10.879199346739604 1.0875977137897985
H 5.057144104103195 12.04511534708956 2.0731917183060835
O -4.0344382303324275 9.44948016345886 -2.117209867413741
H -4.895128518691452 9.868729239128442 -2.266908888701999
H -3.595165114321205 10.03652179229667 -1.4836617635879623
O -4.709128758227896 7.162798661700121 -11.653255045423533
H -4.759956453868956 7.528806699305718 -10.757474928059946
H -4.36837927494744 6.265458867226597 -11.520465636213626
O -7.514257403824037 -2.7099013633634423 -6.185559130202192
H -8.22661034660227 -3.3645390758529974 -6.240057820109725
H -7.838728210291709 -2.064103421061945 -5.54009367197118
O -12.191011336327438 -0.9573157675691846 -3.9110246656526946
H -11.596397971850987 -1.1238496635073822 -4.6577968967845464
H -12.253185057050949 0.008912055733612867 -3.8722926862695917
O -10.923545154592478 12.93489800688585 -6.6847896718608455
H -11.244956294758914 13.272486524317433 -7.534316733687165
H -11.7085765469373 12.537768945072605 -6.278617090811262
O -10.524096899528216 -3.6717464205747175 -12.911840334449426
H -10.171057208291707 -4.517383172813123 -12.596834276451624
H -10.698151989400158 -3.1734883013075454 -12.099186892585054
O -7.6470211368222785 2.6482188282930577 17.727925510912023
H -7.159770545854696 3.290016228869187 17.189733802395935
H -7.39562386699788 1.7903693923477677 17.35395264789495
O -12.877708878133728 -0.4886691367351812 -15.819717275438778
H -12.858887765057478 -0.5944268586841748 -14.856686420870384
H -13.242889271803328 -1.3270728650872199 -16.140161362082164
O 15.00527664309266 -11.631918238518324 5.388301752252475
H 14.829055345693956 -11.504322504290238 6.332564819331726
H 15.774640292410188 -11.068703360676883 5.215586608773782
O 15.476888617379359 7.5289423250407745 -5.923057572579163
H 14.886721642276793 7.722195413675635 -6.66691477805033
H 16.310634336599296 7.957532864181998 -6.16829250023235
O 1.858282519046722 -11.405200194802182 12.578197250766932
H 2.253054117989362 -10.663701515988741 12.095183326654805
H 1.3799886402373427 -10.981789501212893 13.306840026307672
O 7.442075361211598 -1.091358705598197 2.0183628622574457
H 8.207308835362042 -0.796258115495714 1.5023195223519603
H 6.680442569464159 -0.8061751983498908 1.4915348048909496
O -18.282006379660608 -12.82051651526211 -4.814414173353262
H -18.9170826994262 -13.292306463550986 -4.254896819139313
H -18.426604582675836 -11.887349123058678 -4.597039100925414