194

C -5.0710522388059704 1.0783507462686561 0.47044029850746183
C -3.8153522388059704 0.1782507462686569 0.19534029850746193
C -4.11845223880597 -1.3219492537313435 0.5608402985074619
C -2.96945223880597 -2.3874492537313436 0.7034402985074619
C -2.52015223880597 0.7359507462686565 0.7384402985074618
C -2.20305223880597 0.7852507462686571 2.097440298507462
C -1.5755522388059702 1.205650746268656 -0.18965970149253808
C -0.9533522388059701 1.2695507462686564 2.508640298507462
H -2.91125223880597 0.4298507462686567 2.840840298507462
C -0.32655223880597006 1.6562507462686575 0.21554029850746192
H -1.7850522388059702 1.178550746268657 -1.2573597014925382
C 0.004447761194029898 1.6956507462686563 1.569740298507462
H -0.7158522388059702 1.2676507462686573 3.5705402985074617
H 0.3943477611940298 1.9193507462686572 -0.5551597014925382
C -1.76045223880597 -2.1592492537313435 -0.1734597014925381
C -0.5287522388059701 -1.936549253731343 0.464840298507462
C -1.8068522388059702 -2.121249253731343 -1.5681597014925381
C 0.6114477611940299 -1.614449253731343 -0.2582597014925381
H -0.4544522388059702 -1.954049253731343 1.5506402985074619
C -0.6479522388059701 -1.8270492537313432 -2.2998597014925384
H -2.74345223880597 -2.290549253731343 -2.092259701492538
C 0.5698477611940298 -1.5506492537313434 -1.6506597014925382
H 1.5072477611940298 -1.351949253731343 0.2991402985074618
H -0.7173522388059701 -1.7640492537313435 -3.3840597014925375
C 1.7791477611940298 -1.082849253731343 -2.4255597014925376
H 1.4739477611940297 -0.9102492537313429 -3.464259701492538
H 2.1252477611940295 -0.1337492537313434 -2.0010597014925384
C 1.3965477611940298 2.0964507462686566 1.997440298507462
H 1.51704776119403 1.8448507462686567 3.057640298507462
H 2.1256477611940294 1.5207507462686571 1.4165402985074618
C 3.94864776119403 -1.4275492537313434 -3.522959701492538
H 4.81734776119403 -2.087049253731343 -3.615159701492538
H 3.4305477611940303 -1.3641492537313429 -4.484459701492538
H 4.26984776119403 -0.441449253731343 -3.176459701492538
C 2.60904776119403 -3.4296492537313434 -2.8992597014925376
H 1.9825477611940296 -3.869549253731343 -2.119359701492538
H 2.06294776119403 -3.373349253731343 -3.845759701492538
H 3.5215477611940305 -4.019849253731343 -3.0234597014925377
C 3.7281477611940304 -2.060049253731343 -1.156659701492538
H 3.9048477611940298 -1.032549253731343 -0.8295597014925382
H 3.12924776119403 -2.623249253731343 -0.4404597014925382
H 4.68244776119403 -2.5769492537313434 -1.3005597014925383
C 3.1110477611940297 3.755250746268656 2.588740298507462
H 3.40124776119403 4.809350746268656 2.534540298507462
H 2.9823477611940303 3.461750746268656 3.634840298507462
H 3.86514776119403 3.1392507462686563 2.091540298507462
C 1.99744776119403 3.9574507462686572 0.40494029850746194
H 2.67914776119403 3.230350746268657 -0.04295970149253803
H 1.03214776119403 3.981150746268657 -0.10175970149253821
H 2.4399477611940297 4.958250746268657 0.368240298507462
C 0.7418477611940297 4.4992507462686575 2.475440298507462
H -0.18475223880597014 4.424250746268656 1.901240298507462
H 0.57844776119403 4.189650746268656 3.511940298507462
H 1.1210477611940297 5.524350746268658 2.4432402985074617
N 3.00114776119403 -2.025349253731343 -2.490159701492538
N 1.7831477611940298 3.586450746268657 1.862540298507462
C -3.55075223880597 -3.8435492537313434 0.6444402985074619
H -2.62515223880597 -2.2736492537313433 1.7424402985074618
H -4.67195223880597 -1.3478492537313436 1.5102402985074619
H -4.83415223880597 -1.6757492537313432 -0.1945597014925382
H -3.7169522388059697 0.17335074626865676 -0.900559701492538
H -3.9132522388059705 -4.043149253731343 -0.34225970149253815
H -4.35435223880597 -3.9354492537313432 1.3449402985074619
H -2.78115223880597 -4.545049253731343 0.8904402985074619
H -5.24235223880597 1.138950746268657 1.5249402985074618
H -5.92805223880597 0.6501507462686567 -0.006059701492538094
H -4.89895223880597 2.059650746268657 0.08004029850746197
C -2.4774662878213123 2.6211456699663325 -3.686033552099991
O -2.0595271941101325 2.7745683613012253 -2.548684049822246
O -1.7741396827872375 2.416179423834835 -4.682001417393849
O -3.6684325806299003 2.647109096332018 -4.017052545943429
O 6.893114574740687 8.067262453912111 7.219124562057965
H 6.539752726380665 8.580067944636605 7.961508081343245
H 6.102929441808085 7.743417054170028 6.76120147129034
O -1.0416996839125638 -8.79647563085786 -7.840945716402545
H -0.37006032818290846 -9.451263879316539 -8.084092343801464
H -1.8807578074582736 -9.230976253090548 -8.055777322297395
O -3.073210912447262 -8.217518355013828 -5.609514380877399
H -2.246674407203538 -8.1160020801676 -5.11403561408629
H -2.955089136014327 -7.644243006033946 -6.3817608211309755
O -4.343760794874233 -4.995202856369401 5.955886337392922
H -4.202719564026702 -5.953393914966911 5.986621062457515
H -4.371097796653658 -4.792911576321755 5.0086308963157045
O 1.67925941717274 3.5968493042847403 -9.992806464756574
H 2.1929859573240145 3.4825414186233967 -9.179181178694352
H 2.3444228494623918 3.561265460807296 -10.696548848536338
O 7.781409873320841 -4.779097892657166 -0.23861097857366342
H 7.687550006123313 -3.9707952382680487 0.287511156616608
H 8.634363420902467 -5.143325865306881 0.0420492678229305
O 1.82464459539782 -3.8296283372083155 -8.155126223178955
H 2.5986176860803933 -3.3608391588501227 -7.8084711813094945
H 1.2660483987255875 -3.1246433979676285 -8.515582141159394
O -1.7525355424694262 -7.188819712179163 -1.3000186414599895
H -1.4689265689813218 -7.7286402659293945 -0.5469402412878581
H -1.109316198110036 -6.464495597724872 -1.324213611224001
O 1.0634958919593607 6.2278939173240175 -3.234753776150799
H 1.8741610244941722 5.981142402541675 -2.764750489199594
H 0.5200244092172432 6.655039148825422 -2.5556752512719054
O 10.447745556497365 2.4872245002223705 -1.1604877805593663
H 9.608011995505514 2.929776057302613 -0.9656467613416475
H 10.63445348834772 2.7333655350920285 -2.0789194238717337
O 7.64882520352978 2.7577606927096343 -4.309852331295246
H 7.6038584764099575 1.8749883658498954 -4.706914504364873
H 8.388383560921081 2.6967326331919237 -3.686722363901458
O 6.370737771747264 0.06992077089645793 -1.415764627121234
H 6.384946908840811 0.031670187632091895 -2.3839083923766804
H 5.533967199309998 0.5137419573747188 -1.2113148586301983
O -0.9907027694480287 8.073698627188612 3.6598938941703194
H -0.03318811032820876 7.92606242654652 3.641547593981365
H -1.1934567551369308 8.405244894044417 2.7722397731742845
O -1.1761349109167165 10.414480536671544 2.0573947861126722
H -1.0213093985108035 10.420915995655356 3.013927588726318
H -2.1329663691780008 10.543048786745732 1.9742941853059088
O -8.087926742933004 0.8207690004322004 -3.22721511505763
H -8.37023762721459 0.9410705696488959 -4.14634266548801
H -7.277160178525898 1.3472465486559373 -3.160574935317312
O 0.47744313961895024 2.1538183497096357 9.796012082212979
H 1.130731892374813 2.48701179424526 9.162637555616609
H -0.30668354456080715 2.6990245441750993 9.6321295237336
O -8.946593311171199 4.857484635085566 -3.7165148496576093
H -8.142400701087155 4.552411814230808 -4.162801950929799
H -8.73947488647017 5.767958932998393 -3.4574772939065026
O -5.3645538866261315 -2.847556634115182 5.576084136408111
H -5.226813557588777 -2.751099522489805 6.530385443267519
H -4.53364087128354 -2.535871447279306 5.186985370615457
O -8.12096727857997 1.6861936006238367 2.5179978325566044
H -7.930632895407161 0.9723055787120423 3.144977953176942
H -8.537342706600773 1.2346524168068806 1.7685286827194178
O -8.472657335744222 -3.1371375374697603 -6.365611562034099
H -9.109129776926519 -2.442371030901017 -6.591818745531256
H -8.845892563764787 -3.546678258336292 -5.570668918306543
C -7.729711507554059 1.2114804008161868 6.064971166330851
O -7.65376059164308 0.4324190418646281 5.159370197547782
O -7.805662423465037 1.9905417597677464 6.970572135113921
O 11.313352925938538 10.280614586832247 -4.14571354213977
H 10.703598156937035 10.582842345703897 -4.8355141367664665
H 10.75159364829521 9.768623926676916 -3.5446694321150947
O 13.68799569010488 5.677729578330942 -11.819833852737831
H 13.999707045586007 5.394193708584254 -10.947245290853648
H 13.891688921406121 6.624750103249068 -11.844796569053502
O 13.633582251372866 -0.12080962137803075 0.7291763712648667
H 13.61144635761462 -0.6526002488787537 -0.08056191213904396
H 12.751716675696668 0.2785893308253713 0.7710753893454043
O 2.31982509143469 15.390940532631415 -9.628963904948332
H 3.01620146949549 14.85110863261478 -9.225716069612105
H 1.5109295985927664 15.103240009110165 -9.17965506380939
O -7.073719797323843 -10.77418253164133 6.003459876365849
H -7.247895480022064 -10.689685700967146 6.952928398257243
H -6.307528412754098 -10.20008392982862 5.854049361649545
O -12.138106599511563 6.360288616928917 5.056001223454106
H -11.88882401171893 6.141182919195378 5.966395776131191
H -11.802419601288769 5.615004773527734 4.53558967833877
O 7.496341500687979 18.30417079716801 1.7502362744715532
H 6.711208589452458 17.976854567035915 1.286126638623565
H 7.141342761774263 18.69989105689006 2.5603864554350486
O 16.8023264907428 -1.7465242333169337 11.12475598612829
H 16.631951266105897 -1.4480988003270285 10.218730654984224
H 16.043170844360244 -2.3121042822520312 11.331550224713546
O 2.319034900961383 -15.301852417228629 -2.9877072390249095
H 2.547244477433421 -15.301216656445161 -3.92945420180986
H 2.7382229460117706 -16.105822919180476 -2.6458377329584435
O -7.750919449832429 -3.24737447990279 5.792884556603029
H -7.640073978180078 -2.5363109514392583 5.143986030789355
H -8.26503705933088 -3.91842564876291 5.319244021307468
O -11.624266839163743 -15.40195833043142 -5.595291906852
H -12.261346392666217 -14.7062103110691 -5.816722918597186
H -11.88403247180112 -15.682419883217406 -4.704884652945463
O -8.517681684232954 -8.40979076101776 -11.718325942668912
H -8.55861954161654 -8.423743093554338 -12.686363535507965
H -9.446063225873509 -8.453323710484067 -11.444146184568737
O 7.932994324567192 -15.563979764180958 3.4638465752004777
H 8.367121217031634 -15.782985126250681 4.302021884741316
H 7.1754800003406 -16.167178488824298 3.4279956131467544
O 4.959457188171782 -8.8493890939425 -8.26258203465159
H 5.256098983672712 -9.411360272301685 -8.994127929832182
H 5.0594846596385015 -9.411856540707493 -7.479902776857156
O -11.181994464706461 10.843044108512323 -0.7205963285881541
H -10.771675629608328 11.062589620509128 0.12934812761223424
H -10.488613608251626 10.363480521787254 -1.1983030361916251
O 9.448664815657349 -19.725746302368524 5.906268774158338
H 9.648034527392824 -20.248196590855745 5.114899851972148
H 9.978761961151054 -20.142993000920768 6.60187221951113
O -3.8180969138337937 -7.782814459490867 8.327018665906616
H -4.257096212700233 -8.179630844341927 7.559696224420307
H -3.902191854304367 -6.829117980967151 8.177509428269886
O 8.362367200886643 -4.468551680745815 6.791294340846729
H 8.734188359715622 -4.613377741319013 5.908264446151241
H 8.575671498232753 -3.543646147503088 6.986263506641398
O -2.4465983222637187 9.03576216738486 -9.41702094723152
H -2.1540228367109564 9.097823070240988 -10.338712536913368
H -1.779251186049616 9.537598527802784 -8.925319806853217
O 5.209001041744948 9.26688079613227 15.156100200052107
H 4.721514942490177 8.442772747666991 15.007202300845574
H 5.88600749016986 9.02428128696587 15.805538181112121