194

C -5.0710522388059704 1.0783507462686561 0.47044029850746183
C -3.8153522388059704 0.1782507462686569 0.19534029850746193
C -4.11845223880597 -1.3219492537313435 0.5608402985074619
C -2.96945223880597 -2.3874492537313436 0.7034402985074619
C -2.52015223880597 0.7359507462686565 0.7384402985074618
C -2.20305223880597 0.7852507462686571 2.097440298507462
C -1.5755522388059702 1.205650746268656 -0.18965970149253808
C -0.9533522388059701 1.2695507462686564 2.508640298507462
H -2.91125223880597 0.4298507462686567 2.840840298507462
C -0.32655223880597006 1.6562507462686575 0.21554029850746192
H -1.7850522388059702 1.178550746268657 -1.2573597014925382
C 0.004447761194029898 1.6956507462686563 1.569740298507462
H -0.7158522388059702 1.2676507462686573 3.5705402985074617
H 0.3943477611940298 1.9193507462686572 -0.5551597014925382
C -1.76045223880597 -2.1592492537313435 -0.1734597014925381
C -0.5287522388059701 -1.936549253731343 0.464840298507462
C -1.8068522388059702 -2.121249253731343 -1.5681597014925381
C 0.6114477611940299 -1.614449253731343 -0.2582597014925381
H -0.4544522388059702 -1.954049253731343 1.5506402985074619
C -0.6479522388059701 -1.8270492537313432 -2.2998597014925384
H -2.74345223880597 -2.290549253731343 -2.092259701492538
C 0.5698477611940298 -1.5506492537313434 -1.6506597014925382
H 1.5072477611940298 -1.351949253731343 0.2991402985074618
H -0.7173522388059701 -1.7640492537313435 -3.3840597014925375
C 1.7791477611940298 -1.082849253731343 -2.4255597014925376
H 1.4739477611940297 -0.9102492537313429 -3.464259701492538
H 2.1252477611940295 -0.1337492537313434 -2.0010597014925384
C 1.3965477611940298 2.0964507462686566 1.997440298507462
H 1.51704776119403 1.8448507462686567 3.057640298507462
H 2.1256477611940294 1.5207507462686571 1.4165402985074618
C 3.94864776119403 -1.4275492537313434 -3.522959701492538
H 4.81734776119403 -2.087049253731343 -3.615159701492538
H 3.4305477611940303 -1.3641492537313429 -4.484459701492538
H 4.26984776119403 -0.441449253731343 -3.176459701492538
C 2.60904776119403 -3.4296492537313434 -2.8992597014925376
H 1.9825477611940296 -3.869549253731343 -2.119359701492538
H 2.06294776119403 -3.373349253731343 -3.845759701492538
H 3.5215477611940305 -4.019849253731343 -3.0234597014925377
C 3.7281477611940304 -2.060049253731343 -1.156659701492538
H 3.9048477611940298 -1.032549253731343 -0.8295597014925382
H 3.12924776119403 -2.623249253731343 -0.4404597014925382
H 4.68244776119403 -2.5769492537313434 -1.3005597014925383
C 3.1110477611940297 3.755250746268656 2.588740298507462
H 3.40124776119403 4.809350746268656 2.534540298507462
H 2.9823477611940303 3.461750746268656 3.634840298507462
H 3.86514776119403 3.1392507462686563 2.091540298507462
C 1.99744776119403 3.9574507462686572 0.40494029850746194
H 2.67914776119403 3.230350746268657 -0.04295970149253803
H 1.03214776119403 3.981150746268657 -0.10175970149253821
H 2.4399477611940297 4.958250746268657 0.368240298507462
C 0.7418477611940297 4.4992507462686575 2.475440298507462
H -0.18475223880597014 4.424250746268656 1.901240298507462
H 0.57844776119403 4.189650746268656 3.511940298507462
H 1.1210477611940297 5.524350746268658 2.4432402985074617
N 3.00114776119403 -2.025349253731343 -2.490159701492538
N 1.7831477611940298 3.586450746268657 1.862540298507462
C -3.55075223880597 -3.8435492537313434 0.6444402985074619
H -2.62515223880597 -2.2736492537313433 1.7424402985074618
H -4.67195223880597 -1.3478492537313436 1.5102402985074619
H -4.83415223880597 -1.6757492537313432 -0.1945597014925382
H -3.7169522388059697 0.17335074626865676 -0.900559701492538
H -3.9132522388059705 -4.043149253731343 -0.34225970149253815
H -4.35435223880597 -3.9354492537313432 1.3449402985074619
H -2.78115223880597 -4.545049253731343 0.8904402985074619
H -5.24235223880597 1.138950746268657 1.5249402985074618
H -5.92805223880597 0.6501507462686567 -0.006059701492538094
H -4.89895223880597 2.059650746268657 0.08004029850746197
C -0.508877839011711 3.580458732501919 -3.0396760991090437
O -1.3770515194589728 4.431347619460328 -3.1581584236529783
O 0.6905935948505812 3.808615698964207 -2.8451403900398278
O -0.6954257597030733 2.359525221078661 -3.095975462954503
O -2.18667530761176 1.702008045333221 10.040651930826659
H -3.093801548174153 2.0426876445138697 10.045824095291703
H -2.297621788267618 0.7419141472217632 9.970848424186777
O -3.7525175589527144 -5.5578262048536535 -5.661813431198939
H -3.657918054636991 -5.886027548303327 -6.568622214152133
H -4.431416904529181 -4.869929485346539 -5.731496471941966
O 5.345544294672067 2.14367875156848 -0.35085004453540414
H 6.2894246751167815 1.9312522683972144 -0.2967004964391383
H 5.028470100860793 2.0342278527599245 0.5582409303779593
O -5.888364009060105 4.90633477844092 0.2191798849753382
H -5.91277932093983 4.7765112694330885 1.1791367100225434
H -6.352252059476081 4.132170264368824 -0.13357941842115806
O -0.9285399400536171 -1.3000262677685086 -6.117385342841734
H -1.7678738703116683 -1.0135718162527598 -6.507807880132278
H -0.972776114478965 -2.2674272790541097 -6.151154982102543
O -3.409959701071815 -1.5734276059479062 -9.608231465218685
H -3.124104471997859 -2.3574533472634567 -10.10073302040981
H -4.288851709274232 -1.3791706580468324 -9.967083830976641
O 7.089717258221725 3.8337352247234895 2.6956201961388806
H 6.72507732470933 3.611724889031966 1.8257256699840059
H 8.038209549631041 3.943803125290513 2.5306675523229405
O 4.530114482165229 4.740899587718117 5.959286201184571
H 4.092132036638245 4.490822566947859 5.131880485714296
H 4.012936705484981 4.289920495643498 6.643469619662123
O -5.769300309292366 9.524014282312105 2.04359422949497
H -6.122039578382994 8.91481874953341 1.37769396084816
H -6.090393804849384 9.163743229720305 2.8838713742962376
O 0.24263786661801134 -4.340167004201476 10.554267796708352
H 0.17996297753290835 -5.2586570191535476 10.856617441344353
H 0.5301961552198393 -4.416430307018549 9.632066038089437
O 0.03749876000935792 9.09499895310353 -1.988496761212994
H 0.46037599505678184 8.858938654605014 -1.1492007845447878
H 0.6086693881171943 9.788536498363555 -2.3514454231496345
O 2.314410901581113 7.710501030205569 1.2096862644858803
H 2.3917542049613214 8.670359790858102 1.10172085372475
H 1.3633602713862762 7.5420658699049845 1.1316206518224363
O 2.831437384122456 7.994831173276532 5.0161647036267345
H 3.7788857543194876 7.8608984928131385 4.863289003089077
H 2.696351994926665 7.692987988015711 5.9269910171670395
O 9.280749316479204 -4.679795374722406 0.6976953910616608
H 8.532777157299627 -4.326302873070036 1.2022229495436445
H 8.912751799787085 -4.8417014339050555 -0.18396565492391392
O -6.462632441632556 -4.738664150099552 3.1549414384788235
H -6.688163807794555 -5.60861047659924 2.7925930580673697
H -6.506673017868024 -4.147325671148217 2.388559565483142
O 4.409605670818629 -6.11042060606007 -4.082973099131536
H 4.6223586631219895 -5.232654002709421 -4.434013426171368
H 5.228639010201169 -6.394062513220481 -3.649736902834078
O -3.7812819640415416 -9.552893502551672 -0.914744365363696
H -4.529928394188756 -10.013991886538152 -0.5074555737024355
H -3.7181516816041724 -9.944455464145001 -1.7988573343741963
O -1.408162127830077 4.916898799115889 -7.092263186339668
H -2.3268832016319965 4.831778950711946 -7.3883603948032714
H -1.2156990370156047 5.861034248534223 -7.194869989845959
O 1.0895540255720124 -0.2274404338800231 8.432409364531631
H 0.4709862352041765 -0.7107158878447497 7.864266705321251
H 1.3493495270653622 0.537838969420299 7.897792046641422
O -2.8759979076688444 1.8975488749623919 -5.818737187069988
H -3.509149809720272 2.10968626857322 -5.116537961735279
H -3.348501128961895 2.1199773894111167 -6.634965222687378
C 20.611226556046116 -9.283471438788194 -3.1614075821606864
O 21.412813869057143 -9.923311099883048 -2.5442518117025488
O 19.809639243035086 -8.64363177769334 -3.778563352618825
O 4.150009043742537 -12.923791768608078 8.803792899000463
H 4.1013036756581 -12.90974680028954 9.771469437356481
H 3.2594817380747676 -12.667129138800039 8.520866483443127
O 19.82825286988977 -4.297222274963046 3.069090038417577
H 20.416790467352044 -5.061111925754892 2.973887860467428
H 18.945453624168238 -4.65946175914601 2.900537399303387
O 11.270803726630955 -6.243993594561992 -6.401094606664944
H 12.16427504455537 -5.94737213849884 -6.171547067472331
H 11.132707916400435 -5.899845599113768 -7.296334043198961
O -8.462927239641795 9.476826531866742 1.6905343055022355
H -8.453661688826847 9.846349963362972 0.7948033525686284
H -8.010216380603493 10.146630623866079 2.2247414757552617
O -6.585169014559442 -2.9116124184739975 -15.475873060700604
H -6.5835402594318095 -3.011985926258947 -14.512083735696594
H -6.388648198342004 -3.801845576603244 -15.804242421726352
O 6.996592930883763 -10.02326137495408 -13.696285515381124
H 7.7098484404110765 -10.65544323950612 -13.871156968627336
H 7.066371533144021 -9.385014110133962 -14.422049471441385
O -0.6850251064175985 13.032241548220654 12.428415250910042
H -0.012514470037139791 12.337219427629382 12.488756387325958
H -1.3282842364419463 12.79561067092281 13.113386391798162
O -0.3038746732689228 -7.848000150313343 11.976561497647753
H -0.8365455480403297 -8.137217713566356 12.732592116853253
H -0.33682310972432516 -8.599592175462147 11.36583588612662
O -18.417370071117013 1.5461487144714061 0.9670790899608663
H -18.62272195684048 2.329069194791767 0.43431884235904583
H -19.28325000539489 1.1469942865317844 1.1399652558942188
O -1.561301176398647 14.786245982531817 6.16451078328867
H -1.5360759377997457 15.27306706765107 5.327052560258444
H -2.4697657752728706 14.908141178859161 6.478828421999278
O -2.920671162299443 1.361181210427599 -13.868749180227795
H -3.0213515999767484 2.215161982365927 -13.422041616458468
H -3.78764846710665 1.2043993469368672 -14.272149408945634
O -0.14977036648572728 -17.19569958284886 11.936284298043171
H 0.009862800882145528 -17.17309974044922 10.980787643993763
H 0.7378714101915218 -17.155830471238644 12.32289065409111
O -11.114651254807715 9.04996122097927 -0.5855318375208229
H -11.882612058424044 8.959223568712947 -1.1694584077932815
H -11.142864038961406 9.976742609208848 -0.3040318525447132
O 11.218691041390898 13.947520788012328 -7.748860991725865
H 10.529906577531104 13.311139076563723 -7.992913520045324
H 12.045241328490615 13.498690470391276 -7.981944481444804
O -9.87569283096869 -7.130780833815482 5.669704926927076
H -9.446613568003634 -7.955719379789968 5.942348904228734
H -9.478360092153547 -6.93393933370362 4.808112179279228
O -9.057293094722834 4.195386603643026 -13.411659275629166
H -8.900915545742867 3.4392490352371903 -13.99712438707504
H -9.448101796418413 3.7999945731223246 -12.617999622389986
O 4.8116471468229225 -8.975251798162338 10.930669621636437
H 4.6625712904704315 -8.053347874845642 10.672141282520478
H 5.751305555419434 -9.121496099868493 10.744614189916879
O 15.866741580741772 -7.53231888441071 -3.167714525777373
H 16.297393083513086 -7.495314138043225 -4.034973015967633
H 15.994310990350513 -6.642906669812055 -2.804900658133381
O 8.014630744190805 -14.854677806803604 6.7434585172327655
H 7.939230648866701 -14.82728800429559 7.709135472142474
H 7.16657193592802 -15.222484361242108 6.4528100344567845
O 4.976223514804191 -12.02832667396353 -12.463187731813976
H 5.6328689957280265 -11.406960547809431 -12.114349364442273
H 4.993310111290432 -11.874382817793173 -13.419729043868983