194

C -5.0710522388059704 1.0783507462686561 0.47044029850746183
C -3.8153522388059704 0.1782507462686569 0.19534029850746193
C -4.11845223880597 -1.3219492537313435 0.5608402985074619
C -2.96945223880597 -2.3874492537313436 0.7034402985074619
C -2.52015223880597 0.7359507462686565 0.7384402985074618
C -2.20305223880597 0.7852507462686571 2.097440298507462
C -1.5755522388059702 1.205650746268656 -0.18965970149253808
C -0.9533522388059701 1.2695507462686564 2.508640298507462
H -2.91125223880597 0.4298507462686567 2.840840298507462
C -0.32655223880597006 1.6562507462686575 0.21554029850746192
H -1.7850522388059702 1.178550746268657 -1.2573597014925382
C 0.004447761194029898 1.6956507462686563 1.569740298507462
H -0.7158522388059702 1.2676507462686573 3.5705402985074617
H 0.3943477611940298 1.9193507462686572 -0.5551597014925382
C -1.76045223880597 -2.1592492537313435 -0.1734597014925381
C -0.5287522388059701 -1.936549253731343 0.464840298507462
C -1.8068522388059702 -2.121249253731343 -1.5681597014925381
C 0.6114477611940299 -1.614449253731343 -0.2582597014925381
H -0.4544522388059702 -1.954049253731343 1.5506402985074619
C -0.6479522388059701 -1.8270492537313432 -2.2998597014925384
H -2.74345223880597 -2.290549253731343 -2.092259701492538
C 0.5698477611940298 -1.5506492537313434 -1.6506597014925382
H 1.5072477611940298 -1.351949253731343 0.2991402985074618
H -0.7173522388059701 -1.7640492537313435 -3.3840597014925375
C 1.7791477611940298 -1.082849253731343 -2.4255597014925376
H 1.4739477611940297 -0.9102492537313429 -3.464259701492538
H 2.1252477611940295 -0.1337492537313434 -2.0010597014925384
C 1.3965477611940298 2.0964507462686566 1.997440298507462
H 1.51704776119403 1.8448507462686567 3.057640298507462
H 2.1256477611940294 1.5207507462686571 1.4165402985074618
C 3.94864776119403 -1.4275492537313434 -3.522959701492538
H 4.81734776119403 -2.087049253731343 -3.615159701492538
H 3.4305477611940303 -1.3641492537313429 -4.484459701492538
H 4.26984776119403 -0.441449253731343 -3.176459701492538
C 2.60904776119403 -3.4296492537313434 -2.8992597014925376
H 1.9825477611940296 -3.869549253731343 -2.119359701492538
H 2.06294776119403 -3.373349253731343 -3.845759701492538
H 3.5215477611940305 -4.019849253731343 -3.0234597014925377
C 3.7281477611940304 -2.060049253731343 -1.156659701492538
H 3.9048477611940298 -1.032549253731343 -0.8295597014925382
H 3.12924776119403 -2.623249253731343 -0.4404597014925382
H 4.68244776119403 -2.5769492537313434 -1.3005597014925383
C 3.1110477611940297 3.755250746268656 2.588740298507462
H 3.40124776119403 4.809350746268656 2.534540298507462
H 2.9823477611940303 3.461750746268656 3.634840298507462
H 3.86514776119403 3.1392507462686563 2.091540298507462
C 1.99744776119403 3.9574507462686572 0.40494029850746194
H 2.67914776119403 3.230350746268657 -0.04295970149253803
H 1.03214776119403 3.981150746268657 -0.10175970149253821
H 2.4399477611940297 4.958250746268657 0.368240298507462
C 0.7418477611940297 4.4992507462686575 2.475440298507462
H -0.18475223880597014 4.424250746268656 1.901240298507462
H 0.57844776119403 4.189650746268656 3.511940298507462
H 1.1210477611940297 5.524350746268658 2.4432402985074617
N 3.00114776119403 -2.025349253731343 -2.490159701492538
N 1.7831477611940298 3.586450746268657 1.862540298507462
C -3.55075223880597 -3.8435492537313434 0.6444402985074619
H -2.62515223880597 -2.2736492537313433 1.7424402985074618
H -4.67195223880597 -1.3478492537313436 1.5102402985074619
H -4.83415223880597 -1.6757492537313432 -0.1945597014925382
H -3.7169522388059697 0.17335074626865676 -0.900559701492538
H -3.9132522388059705 -4.043149253731343 -0.34225970149253815
H -4.35435223880597 -3.9354492537313432 1.3449402985074619
H -2.78115223880597 -4.545049253731343 0.8904402985074619
H -5.24235223880597 1.138950746268657 1.5249402985074618
H -5.92805223880597 0.6501507462686567 -0.006059701492538094
H -4.89895223880597 2.059650746268657 0.08004029850746197
C 3.6346824220265956 -0.9184179636672019 2.852304211108191
O 3.308102775290131 -1.4188570444389015 3.9175187244217593
O 3.1881782676289823 -1.2429233574190701 1.745976161372663
O 4.462229160534038 -0.01002146234014445 2.7158103417863177
O -8.99999124193143 1.8847468647996788 4.039418074933127
H -8.331906111276833 2.5286665740734504 4.318697546264287
H -9.812440127222004 2.1879218184438587 4.471822631538339
O 7.7371457026736605 -2.9033648551320574 4.302727860736756
H 7.944035474427799 -3.526699660308749 5.015200807520603
H 7.3214796180543145 -2.156225841336505 4.758761789805453
O 6.815873940786789 -4.786761331054247 -8.807166203314498
H 6.642363481722077 -5.106893906453383 -7.9091814530745665
H 7.26983530671844 -5.527616535136425 -9.236135420305443
O 4.302156978937059 0.7834002963876399 -0.0073566872547560225
H 4.4539432660480065 1.034825764956382 0.9160681952885195
H 4.561514482072964 1.5702908637447148 -0.509849338814526
O -3.961944456154019 0.7819370219486095 -4.484495003531727
H -3.542299557335291 1.3905138712786638 -3.8579970113123374
H -4.910482601866747 0.8983066418582206 -4.324197024786045
O 5.981625553814228 7.442056426706475 -6.287573725928358
H 6.165262091201306 6.968759916220331 -5.462203874166056
H 6.644124089573081 8.14900437854213 -6.304373363208562
O -2.37182244880576 3.813258415032328 0.38642379348408973
H -2.0258696494428112 3.1132161140045946 0.9602049314493752
H -2.2866119662844033 3.4472750783146777 -0.5067488187323238
O -2.8649409477692416 -0.4419881914998194 9.277715125737995
H -2.8383503338920804 0.4308940121345821 8.857790186335738
H -3.3690291501075067 -0.9863360007053981 8.65438335919913
O 3.4101712328460363 -7.68975008328924 -2.1237703820957026
H 3.5086362581429493 -6.728999208469892 -2.044841602635105
H 2.5290109826090448 -7.865323528154815 -1.7608757373841601
O -1.2477325244873096 -0.598853818560642 -9.306399006488832
H -1.024973872166635 -1.44799650189517 -9.71664605773444
H -1.4818595002463115 -0.031065927134592775 -10.0559077882065
O -0.38362561693139874 -9.89898273907355 -3.244605307409372
H -0.4049844103750626 -9.756198283761895 -2.2864175605851984
H -0.03243739685829716 -9.067604681005491 -3.5973648614187184
O -4.752559600576414 5.553386532907821 -4.580668809507857
H -4.821682892484697 5.952141741191558 -5.461113930615559
H -5.317950683023819 4.768260846848088 -4.634264754113628
O -4.993159532698715 4.981168739937757 -2.3572782360025504
H -4.9801585793270675 4.6365169989131205 -1.4517322628349172
H -5.915337525657219 4.874527307565986 -2.6350862605531797
O 2.809363593030685 1.7524447199731878 7.77238263697623
H 2.8530036463483754 1.7583029950012257 8.740385004359764
H 3.7367161560161604 1.8031810618757471 7.495968107990116
O 0.6801458022176998 -2.8711845080043243 6.725178512527831
H 0.7176463519857432 -2.9248433985562534 7.691967935893556
H 1.0631364214607806 -3.7106132223168165 6.429138712062628
O 7.727554446278686 -0.738367967552302 -3.7633814370769882
H 7.642523562493519 -1.399703802523499 -4.466497372812813
H 7.44405636542154 -1.2081262431017055 -2.9646837815131537
O 6.263001229346993 1.88495799578144 7.59033291575423
H 7.055237906290025 1.4051998766845797 7.875219826241366
H 5.8301534337185394 1.276318851243436 6.972948819866074
O -4.172461919649281 0.6033341031033224 -9.207224028215755
H -3.6523007501170075 0.5240279391877725 -10.020925599417275
H -3.74037733191291 -0.008666870799177051 -8.592635010023045
O 6.945073654631299 -7.850359631977844 1.3585692463041315
H 6.770517256028853 -8.675093727698044 0.8807501466821841
H 6.460446277710417 -7.955127312944908 2.1911087245654133
O 1.1253512915550123 3.0836177747785465 -6.775067333464398
H 0.570200012352264 3.051854495460093 -5.9814896698507525
H 0.9214041685568266 2.2563869278960604 -7.236647923704982
C 14.263520385919849 -1.8693072277512135 5.920952346432621
O 13.282954143038388 -2.436636229073445 5.534370007363625
O 15.24408662880131 -1.3019782264289814 6.307534685501617
O 11.588193530416111 -7.0169854084218795 4.589244450843118
H 12.349720855213635 -7.025443185025121 3.990101766249823
H 10.831366800202204 -7.186090657564508 4.0082292535839334
O 3.2642059006152984 11.042608783315096 -3.231932741722558
H 3.57429122713979 10.697568986784352 -2.381190720905305
H 2.9284664332828454 10.259657686337992 -3.693699494659221
O -4.226413939044262 -5.819101222274865 -10.634710981690224
H -3.4312765008979174 -6.029864173734686 -11.146866026232415
H -4.051527260065498 -6.203013773779517 -9.762364865396371
O 7.5767649482806245 -5.77072705976075 0.30935460272786663
H 7.640722424909598 -6.316165519123287 -0.48900226304800665
H 7.4383973207916005 -4.873849519469674 -0.030390922164643897
O 3.4857721886858313 -0.04185285997191879 14.859136092093005
H 3.4794607599101903 -0.03398389036742605 15.82808686591187
H 3.708234400943091 -0.957693829412654 14.633952107068628
O 14.775583288592497 -6.92450660868416 -3.9321628727881226
H 15.308371410448803 -6.6854383884717095 -3.1588902428617285
H 13.97836553724532 -7.323802688569457 -3.552731137392697
O -5.867592239000038 -6.576748833478515 15.555500878514863
H -6.1510227937540005 -6.325211818111976 14.663669275894527
H -5.869130592301325 -5.741064615401641 16.046002117480032
O -8.151204858015413 9.718734055790925 7.592236771781206
H -8.154181390007029 9.103918451151143 8.341209581333544
H -8.901907406427725 9.431781271497005 7.050881317672513
O -18.21933338188397 -10.16936265114134 -8.397576587285034
H -17.711034798109637 -10.22499042006448 -7.57446939016084
H -17.915871485641897 -10.932352696781402 -8.912085102358729
O 1.1816483785629437 16.15736808665809 -11.86628705359544
H 1.891196213268422 15.516790463756621 -11.707637955890243
H 1.1261384009847486 16.21071196995947 -12.832224430863551
O 4.073146676372264 -16.758568732551364 -14.446933527191405
H 3.3921049144352704 -16.08001771013624 -14.568251231493552
H 3.5768999392032352 -17.590855399655602 -14.44677889987521
O -2.8889994312606366 -7.162335831373489 5.20263002798683
H -3.625269668053493 -7.674904156429903 5.568891147219893
H -2.256026847620062 -7.83628993796272 4.912641209459482
O -0.6207403095864037 -7.130670919546252 -13.061189526806881
H -1.4155334746016561 -7.343940012321288 -12.549537813419784
H -0.3892993105846805 -6.2353372824452915 -12.771750955506082
O -6.962661584854947 -8.068056645441803 9.046449972449892
H -7.183162640852715 -8.166143083096625 9.98491983981488
H -7.112729432903691 -8.951288789511288 8.677204031423537
O -14.168877423983766 -7.163183911124336 3.0330480185522486
H -15.082363280383605 -6.893016304449095 2.8555081318765336
H -13.923337908263882 -7.684432856605334 2.2539640517328876
O 4.754771884419051 -6.794688393614833 -5.6332387467120935
H 4.873120579405928 -7.007010759007315 -6.571258019674564
H 4.734454619858199 -5.826107098934712 -5.613253035402648
O -15.924974587403883 3.829651717901077 -6.3673314865880535
H -16.22285935136736 4.515775301436898 -6.9833399706322155
H -15.818078593870219 4.300028337322189 -5.526926211278328
O 10.223877927871902 14.571574711787825 7.744287056796798
H 9.934941686422226 14.351262576714232 8.642588658941786
H 9.579723464386067 15.231353694419294 7.446430269818454
O -3.769287663265728 7.9290606018126795 5.899906776182644
H -3.3554115771339648 7.547497155867056 6.688629337636515
H -4.698200559067741 8.038897801267254 6.152925680473793
O -7.317025314694533 7.471007665286285 -5.923282577478815
H -7.374541746953327 7.680618497869108 -6.8675931809267245
H -6.758138209243145 8.17478649090523 -5.560925692252955