194

C -5.0710522388059704 1.0783507462686561 0.47044029850746183
C -3.8153522388059704 0.1782507462686569 0.19534029850746193
C -4.11845223880597 -1.3219492537313435 0.5608402985074619
C -2.96945223880597 -2.3874492537313436 0.7034402985074619
C -2.52015223880597 0.7359507462686565 0.7384402985074618
C -2.20305223880597 0.7852507462686571 2.097440298507462
C -1.5755522388059702 1.205650746268656 -0.18965970149253808
C -0.9533522388059701 1.2695507462686564 2.508640298507462
H -2.91125223880597 0.4298507462686567 2.840840298507462
C -0.32655223880597006 1.6562507462686575 0.21554029850746192
H -1.7850522388059702 1.178550746268657 -1.2573597014925382
C 0.004447761194029898 1.6956507462686563 1.569740298507462
H -0.7158522388059702 1.2676507462686573 3.5705402985074617
H 0.3943477611940298 1.9193507462686572 -0.5551597014925382
C -1.76045223880597 -2.1592492537313435 -0.1734597014925381
C -0.5287522388059701 -1.936549253731343 0.464840298507462
C -1.8068522388059702 -2.121249253731343 -1.5681597014925381
C 0.6114477611940299 -1.614449253731343 -0.2582597014925381
H -0.4544522388059702 -1.954049253731343 1.5506402985074619
C -0.6479522388059701 -1.8270492537313432 -2.2998597014925384
H -2.74345223880597 -2.290549253731343 -2.092259701492538
C 0.5698477611940298 -1.5506492537313434 -1.6506597014925382
H 1.5072477611940298 -1.351949253731343 0.2991402985074618
H -0.7173522388059701 -1.7640492537313435 -3.3840597014925375
C 1.7791477611940298 -1.082849253731343 -2.4255597014925376
H 1.4739477611940297 -0.9102492537313429 -3.464259701492538
H 2.1252477611940295 -0.1337492537313434 -2.0010597014925384
C 1.3965477611940298 2.0964507462686566 1.997440298507462
H 1.51704776119403 1.8448507462686567 3.057640298507462
H 2.1256477611940294 1.5207507462686571 1.4165402985074618
C 3.94864776119403 -1.4275492537313434 -3.522959701492538
H 4.81734776119403 -2.087049253731343 -3.615159701492538
H 3.4305477611940303 -1.3641492537313429 -4.484459701492538
H 4.26984776119403 -0.441449253731343 -3.176459701492538
C 2.60904776119403 -3.4296492537313434 -2.8992597014925376
H 1.9825477611940296 -3.869549253731343 -2.119359701492538
H 2.06294776119403 -3.373349253731343 -3.845759701492538
H 3.5215477611940305 -4.019849253731343 -3.0234597014925377
C 3.7281477611940304 -2.060049253731343 -1.156659701492538
H 3.9048477611940298 -1.032549253731343 -0.8295597014925382
H 3.12924776119403 -2.623249253731343 -0.4404597014925382
H 4.68244776119403 -2.5769492537313434 -1.3005597014925383
C 3.1110477611940297 3.755250746268656 2.588740298507462
H 3.40124776119403 4.809350746268656 2.534540298507462
H 2.9823477611940303 3.461750746268656 3.634840298507462
H 3.86514776119403 3.1392507462686563 2.091540298507462
C 1.99744776119403 3.9574507462686572 0.40494029850746194
H 2.67914776119403 3.230350746268657 -0.04295970149253803
H 1.03214776119403 3.981150746268657 -0.10175970149253821
H 2.4399477611940297 4.958250746268657 0.368240298507462
C 0.7418477611940297 4.4992507462686575 2.475440298507462
H -0.18475223880597014 4.424250746268656 1.901240298507462
H 0.57844776119403 4.189650746268656 3.511940298507462
H 1.1210477611940297 5.524350746268658 2.4432402985074617
N 3.00114776119403 -2.025349253731343 -2.490159701492538
N 1.7831477611940298 3.586450746268657 1.862540298507462
C -3.55075223880597 -3.8435492537313434 0.6444402985074619
H -2.62515223880597 -2.2736492537313433 1.7424402985074618
H -4.67195223880597 -1.3478492537313436 1.5102402985074619
H -4.83415223880597 -1.6757492537313432 -0.1945597014925382
H -3.7169522388059697 0.17335074626865676 -0.900559701492538
H -3.9132522388059705 -4.043149253731343 -0.34225970149253815
H -4.35435223880597 -3.9354492537313432 1.3449402985074619
H -2.78115223880597 -4.545049253731343 0.8904402985074619
H -5.24235223880597 1.138950746268657 1.5249402985074618
H -5.92805223880597 0.6501507462686567 -0.006059701492538094
H -4.89895223880597 2.059650746268657 0.08004029850746197
C 1.8873228575581265 -3.087619681249814 2.9931303534892493
O 1.9328799778663353 -2.3430339370127102 3.960235372020381
O 2.1463433001587915 -2.7605708004818537 1.8292665710802505
O 1.5751450769091708 -4.283417461518168 3.0286421314561602
O -2.898754081795399 7.534664634063517 -3.013596706392232
H -3.081363225896868 7.453509973659553 -3.961771362500086
H -3.776110426296382 7.507790749814586 -2.6031267520603127
O -4.211616847985539 2.7812943296531945 4.1379056934131695
H -3.745237482424389 2.749137023725765 4.986683374525409
H -3.500210456282211 2.8255744281665534 3.481474308560726
O 3.511297470750801 6.012304649497683 6.917775246192859
H 3.704018472593048 6.335739792180178 6.024905893584721
H 2.972081171440088 5.221095143794021 6.768794559720333
O -8.855524791258413 -1.38347880583254 1.1890858737692565
H -9.654719528552011 -0.8400271479656212 1.259195961088517
H -8.471579918891 -1.1263126572135924 0.33737356830028586
O -6.71281486740162 -7.5631955708147105 5.606753142141326
H -6.28791789488223 -8.405660067787466 5.827396499132423
H -7.299251865588396 -7.783377335869478 4.867446993245585
O -3.1232417192693633 -5.6304152892232135 -3.8624296736477426
H -3.684298078162345 -5.993540193746585 -4.564087298676248
H -3.7489990136217153 -5.1954741577978725 -3.2639182158967075
O 0.6678868886071507 0.8108791291977795 10.38918220835993
H 1.3904344850331558 0.34973476652638547 10.841109419949806
H -0.13050700917617597 0.36277509265607755 10.706565101278532
O -0.15461630592719633 6.103749437298051 -4.422240166243379
H 0.44674065788999817 6.496548208762209 -3.7718200834470252
H -0.36478860142152447 5.233643506917526 -4.051153625900988
O 0.4063735103477232 -3.2009350985059988 6.349216215293914
H 0.7140682371972071 -3.068806916272893 7.258520045390762
H 1.1816480712079152 -2.9913802312423146 5.807000338369293
O -3.7502612944937583 10.23450178789553 -1.0659478692207776
H -3.310021071652707 10.413179008823604 -0.22141820496126563
H -3.70838636005063 9.270268029705251 -1.1523289651366764
O -2.1118073774733985 -4.957733514035707 8.160330027286513
H -2.068088768465941 -4.918342270212795 7.193115278620767
H -1.3865747760732743 -4.384547488458197 8.450945577883973
O -5.124632258620925 -0.5690405100868068 9.64369683239229
H -5.13457147073981 -0.04479429168726501 8.828813729452833
H -4.275865824031999 -0.34650492724030535 10.05483597937585
O -6.334322154531453 8.813342704034271 -0.004970630646315755
H -5.652960237997423 8.414362400498852 0.5567481717698577
H -7.131167656973226 8.796887761180917 0.5461449873450546
O 5.158059407615866 0.7898249095608918 4.647910416849029
H 6.0319897427533915 0.89437292121663 5.0532286122032986
H 5.353059329252359 0.5725446844588818 3.723937322737852
O 7.083882136723142 -0.17657464654926613 8.31055032777745
H 7.121983391465431 -0.8636425396784624 7.628308903120408
H 7.26535707917396 0.6434710135272734 7.827276176852633
O 1.6825940726176434 11.218135961353113 4.083894492111563
H 1.3599719656492129 11.099289682941617 3.177937597384783
H 1.4624190569303375 12.138580537315134 4.291900956792802
O 4.007281120203785 1.0839337957251645 -0.7533505382318729
H 4.07369812945726 1.032509074092491 -1.7187062425123347
H 4.910498881379407 1.2869334462954813 -0.467080103039513
O 6.259797891003754 0.08113619849281162 -3.9247240367177656
H 7.208128906294549 0.17444387863008426 -4.1005913707082815
H 5.848836616602037 0.7445358320039898 -4.49915741100877
O 0.8990903090620803 0.8809777651473721 -6.433177515306442
H 1.1773927063025305 1.4160158191579983 -7.191629500174794
H 1.697432984497866 0.3896509270079772 -6.187802587895396
O 9.582840638769785 -5.324404948537998 -5.118053215748886
H 8.698601552746624 -5.718633814649429 -5.077160713093482
H 10.006863941439299 -5.777368968269828 -5.862358112898986
C -5.770810650964056 -11.109441983821846 -18.84882073867796
O -5.9387414788721555 -11.435940809483041 -17.70951568243536
O -5.602879823055957 -10.782943158160652 -19.988125794920563
O 8.895264401151405 4.231930693553311 -6.23114317937576
H 9.698165116860404 3.8081419448889084 -5.892438449383038
H 8.346159536397277 4.357015278093293 -5.442600448438615
O -11.680003336962177 -1.788082051852558 -13.98895598109593
H -11.516877684865928 -1.2598256272075743 -13.193152909758886
H -10.974400141909413 -1.5199598214712404 -14.596571439265553
O 9.646974931373434 11.967209648690568 0.5310612466727527
H 9.892159677332202 12.771576148192125 1.0125654852093966
H 9.900897630748672 11.249201523460927 1.130185223113525
O 16.564014143392658 2.7360085861251595 -2.5098334521335546
H 15.683080939295454 2.33237087991213 -2.5090278826914787
H 17.033746617024754 2.2741401952782945 -1.7992063086525347
O -11.27772560007338 -5.762185028016717 -13.974363210619913
H -11.11640354442359 -5.91098559519577 -13.030540694217535
H -10.403774579388951 -5.86455811406675 -14.3801849806092
O -3.4865332990704356 -14.517445771104427 11.493023332475504
H -3.75213611377516 -14.594322958600333 12.421738789310183
H -4.190570415850128 -14.975230370520485 11.009570187864758
O 10.309767579422589 -12.113460664240966 8.858931538894414
H 10.351923668198955 -13.055216014991931 9.083179349164675
H 11.23622763575046 -11.829577606310416 8.865573658206664
O -2.012732295423085 -17.137571677667424 5.853961380958204
H -2.972749750680841 -17.091417663269425 5.977264460625227
H -1.7491583351119488 -16.2146019003695 5.7212304428144325
O 2.9062126387180713 7.930158687161831 8.839970368255287
H 2.136457833639332 7.738654682657619 8.283399516326226
H 2.9713850454045425 8.896844737788069 8.824719754125345
O 13.321459277907353 -0.7939319270468088 -6.359747344477054
H 13.72014874673943 -0.5351131179353077 -5.515338149600243
H 13.109342719033364 0.04965127628847554 -6.786755410913787
O 8.689044437616898 -5.489924649442697 -2.13567450419567
H 7.9322938277761486 -5.294783978057675 -1.5627731254426989
H 8.487750611399752 -6.365267259996197 -2.4992925097677885
O -6.3807151242373505 21.03064221435138 -5.896215795342634
H -6.496127167201896 21.414526096837584 -5.014013674507465
H -6.301367895612498 20.079477188884084 -5.7290301023621915
O 1.3922714558693947 -5.249384694288459 -6.208627224101354
H 1.43200742269411 -5.18752329759584 -5.2424173206954
H 0.8029985101706112 -4.524325861901495 -6.465549448412783
O -1.4617277998665 -13.617008648923019 -10.794700186244063
H -2.1476605578085017 -13.614474478252152 -10.110260863541829
H -1.2381699053438835 -14.554130810248022 -10.898555214288775
O -5.138089820766068 5.911748555988367 10.131173022960075
H -4.241698008353162 6.133944337610826 9.837782310482178
H -5.069560884748822 4.987321628943401 10.413485944702147
O -1.8690820572561422 -2.9758602197030535 13.512494700560532
H -1.1595421993885942 -3.526402071542719 13.148593317806561
H -1.7767769472029742 -2.1338618477469824 13.041877602930839
O -15.27551527369311 -8.133421471111419 0.4684297667848041
H -15.121181887872476 -8.200999122252256 1.4226738781040347
H -16.13604475252674 -8.559902667404506 0.33972565042974523
O 8.361459101866721 12.41158400446354 -3.9251363888744164
H 7.480235557898258 12.0131480655157 -3.8646283314736376
H 8.236126797070941 13.309829586129428 -3.5839492954897416
O 19.45831419826124 -3.920978063610743 14.565042318387064
H 20.40445329756943 -4.017361174883719 14.379304714435584
H 19.428344079411573 -3.6587974201943396 15.497418340437125
O -15.215845827104854 10.656969713501741 9.331597421731193
H -15.146423815302693 10.428914446397794 8.392375011264168
H -15.55146039014597 11.565984798672964 9.327549668542714