194

C -5.0710522388059704 1.0783507462686561 0.47044029850746183
C -3.8153522388059704 0.1782507462686569 0.19534029850746193
C -4.11845223880597 -1.3219492537313435 0.5608402985074619
C -2.96945223880597 -2.3874492537313436 0.7034402985074619
C -2.52015223880597 0.7359507462686565 0.7384402985074618
C -2.20305223880597 0.7852507462686571 2.097440298507462
C -1.5755522388059702 1.205650746268656 -0.18965970149253808
C -0.9533522388059701 1.2695507462686564 2.508640298507462
H -2.91125223880597 0.4298507462686567 2.840840298507462
C -0.32655223880597006 1.6562507462686575 0.21554029850746192
H -1.7850522388059702 1.178550746268657 -1.2573597014925382
C 0.004447761194029898 1.6956507462686563 1.569740298507462
H -0.7158522388059702 1.2676507462686573 3.5705402985074617
H 0.3943477611940298 1.9193507462686572 -0.5551597014925382
C -1.76045223880597 -2.1592492537313435 -0.1734597014925381
C -0.5287522388059701 -1.936549253731343 0.464840298507462
C -1.8068522388059702 -2.121249253731343 -1.5681597014925381
C 0.6114477611940299 -1.614449253731343 -0.2582597014925381
H -0.4544522388059702 -1.954049253731343 1.5506402985074619
C -0.6479522388059701 -1.8270492537313432 -2.2998597014925384
H -2.74345223880597 -2.290549253731343 -2.092259701492538
C 0.5698477611940298 -1.5506492537313434 -1.6506597014925382
H 1.5072477611940298 -1.351949253731343 0.2991402985074618
H -0.7173522388059701 -1.7640492537313435 -3.3840597014925375
C 1.7791477611940298 -1.082849253731343 -2.4255597014925376
H 1.4739477611940297 -0.9102492537313429 -3.464259701492538
H 2.1252477611940295 -0.1337492537313434 -2.0010597014925384
C 1.3965477611940298 2.0964507462686566 1.997440298507462
H 1.51704776119403 1.8448507462686567 3.057640298507462
H 2.1256477611940294 1.5207507462686571 1.4165402985074618
C 3.94864776119403 -1.4275492537313434 -3.522959701492538
H 4.81734776119403 -2.087049253731343 -3.615159701492538
H 3.4305477611940303 -1.3641492537313429 -4.484459701492538
H 4.26984776119403 -0.441449253731343 -3.176459701492538
C 2.60904776119403 -3.4296492537313434 -2.8992597014925376
H 1.9825477611940296 -3.869549253731343 -2.119359701492538
H 2.06294776119403 -3.373349253731343 -3.845759701492538
H 3.5215477611940305 -4.019849253731343 -3.0234597014925377
C 3.7281477611940304 -2.060049253731343 -1.156659701492538
H 3.9048477611940298 -1.032549253731343 -0.8295597014925382
H 3.12924776119403 -2.623249253731343 -0.4404597014925382
H 4.68244776119403 -2.5769492537313434 -1.3005597014925383
C 3.1110477611940297 3.755250746268656 2.588740298507462
H 3.40124776119403 4.809350746268656 2.534540298507462
H 2.9823477611940303 3.461750746268656 3.634840298507462
H 3.86514776119403 3.1392507462686563 2.091540298507462
C 1.99744776119403 3.9574507462686572 0.40494029850746194
H 2.67914776119403 3.230350746268657 -0.04295970149253803
H 1.03214776119403 3.981150746268657 -0.10175970149253821
H 2.4399477611940297 4.958250746268657 0.368240298507462
C 0.7418477611940297 4.4992507462686575 2.475440298507462
H -0.18475223880597014 4.424250746268656 1.901240298507462
H 0.57844776119403 4.189650746268656 3.511940298507462
H 1.1210477611940297 5.524350746268658 2.4432402985074617
N 3.00114776119403 -2.025349253731343 -2.490159701492538
N 1.7831477611940298 3.586450746268657 1.862540298507462
C -3.55075223880597 -3.8435492537313434 0.6444402985074619
H -2.62515223880597 -2.2736492537313433 1.7424402985074618
H -4.67195223880597 -1.3478492537313436 1.5102402985074619
H -4.83415223880597 -1.6757492537313432 -0.1945597014925382
H -3.7169522388059697 0.17335074626865676 -0.900559701492538
H -3.9132522388059705 -4.043149253731343 -0.34225970149253815
H -4.35435223880597 -3.9354492537313432 1.3449402985074619
H -2.78115223880597 -4.545049253731343 0.8904402985074619
H -5.24235223880597 1.138950746268657 1.5249402985074618
H -5.92805223880597 0.6501507462686567 -0.006059701492538094
H -4.89895223880597 2.059650746268657 0.08004029850746197
C -0.23572300866337814 3.0199806787240733 -4.270157905862641
O 0.413316821319039 3.8644926467570273 -4.867922352401159
O -0.5171336119947858 1.897555465090549 -4.705590077655667
O -0.7115747109559791 3.1570885654720673 -3.1372788438190646
O 3.154646235524962 -6.534048922978018 4.467804451569295
H 3.054050843140271 -7.472523046319058 4.248454859022967
H 2.8967046364685887 -6.482710869197389 5.4004311078526435
O -8.833267540768345 -2.0373714234380884 4.10895693002624
H -8.45152746868175 -1.2814337034785825 3.6380004163163795
H -9.595308035321128 -2.2904919859932775 3.566567577463441
O 0.6777711577476371 -2.9222751399903477 7.845828981943056
H -0.03431564037206414 -3.019369451243503 7.195850179545694
H 0.9603218935841604 -2.00061023347736 7.747539480567557
O -5.265420637366723 -0.04578126281986794 -3.7446986177187895
H -5.1887536985304035 -0.007926601714778325 -2.7794750363543024
H -5.6412132739313705 -0.92247313858898 -3.915441680723484
O -4.270910005600439 -2.855856808584133 5.376230503760989
H -3.3567382555096104 -2.5711568188586225 5.52523816828254
H -4.3036408576193415 -3.7464782872217777 5.7566040273077945
O 9.101137519592715 3.049688629762839 -2.4969821640535264
H 8.837588093209872 3.71238697698623 -3.1529851803123394
H 8.261661791236868 2.6673680491160856 -2.200210501970797
O -0.48584195449493706 3.5512739689127906 6.7690020640381485
H -0.38711768338943253 3.1519863139630155 7.646378974948959
H 0.3451519724112959 3.3364885812914236 6.319248492613422
O -8.990755295271251 2.0754952576730368 4.78566785369675
H -9.093242672777194 2.3402384234381497 3.8591826943268757
H -9.001378009499735 2.9139865346163174 5.271241206273318
O -7.980468955911285 3.0723625366133134 -1.3178347787168423
H -8.226264020555996 3.5887684666299156 -0.5356090705353791
H -7.876018616726032 2.1703779980152778 -0.9794918120777044
O 1.5449281084130009 -10.014299392012681 -3.302093726251212
H 2.2665645014242486 -10.651934013321991 -3.4099378864521825
H 0.7862477819417686 -10.446093942142907 -3.7227118107451407
O 7.370119844553859 -2.716158142984977 -2.402213542239935
H 6.7302666539881955 -2.5466056596809112 -1.694536209814792
H 8.209228810183438 -2.392431899005526 -2.041576041334924
O -7.603418956665408 5.857055304589036 3.7935666786088014
H -7.663431692479169 5.124261319162339 3.1623941163386986
H -7.221124723004849 5.45219408529946 4.58659912203419
O 4.165776724250821 -3.260844645516107 5.329439742112688
H 3.3271176278477714 -3.74017861835544 5.252907269249971
H 3.898258962015125 -2.3523780991000596 5.534585361688889
O -6.288489553805831 10.614878540543732 -0.8601613324391937
H -6.64763754935894 10.811508185943708 -1.73840779940622
H -5.61778224112916 9.935996523338389 -1.028187674830034
O -0.2959807759933761 -1.4390868165163744 -5.88238863031696
H 0.4437714547730401 -1.4369999072956863 -6.508271717471436
H -0.060483751772927696 -0.7534824939982008 -5.239388001368815
O 11.453683741095599 -2.329929541044563 -5.359602153397953
H 11.172473997349666 -2.471613059567906 -4.443188372673768
H 12.112522749919222 -1.6222674974441609 -5.295512085527708
O -4.008796386737892 -4.168819614766692 -3.615246330822398
H -4.321039808070278 -3.9582322757626827 -2.7224281100261054
H -4.572348139547287 -4.906798011502965 -3.892300932220781
O 6.96701041772969 -3.0775133128555727 1.674927599953843
H 7.128895710162504 -3.5940363996805704 0.8712084887148981
H 6.227958848460119 -2.4981640945642427 1.4359313541142735
O -0.015857921561488464 -6.9037888087671515 -0.422532160799201
H 0.20958597170781967 -6.530186711489365 0.4426637018800066
H 0.6948864318017844 -7.539326227958572 -0.5954384859285344
O -2.461130363297584 4.855439308027474 -4.456591890397956
H -2.958000237914894 5.375232184651439 -5.106132535784188
H -1.669618086108331 5.387991986962949 -4.286715748702512
C 11.505458365433727 9.876725319897108 -6.713771276754553
O 11.69472433796761 10.451742747363387 -7.746414296897944
O 11.316192392899843 9.30170789243083 -5.68112825661116
O 4.342602640243898 -12.536563581879172 8.746071538111194
H 4.3063243839064755 -13.069093580814524 7.937329895031631
H 5.027175652269147 -12.967503499017987 9.279562422122412
O 13.85018607571936 11.333789428180907 -12.932917730179144
H 13.067979280456507 11.891120581244868 -13.061377343167093
H 13.928226275325759 10.844440718226025 -13.765629872285217
O -4.170870910179721 -17.62933960169301 17.58003846816343
H -4.601709837595001 -18.485883145476407 17.439758985962232
H -4.505386162820821 -17.077859369139002 16.85689875610729
O 3.634137979162375 13.851852994470185 12.219099581582984
H 4.435983535424679 13.322010849392546 12.095493909779773
H 3.243056389816397 13.498382467090108 13.032165213034881
O -6.360756056282155 -6.514481520799449 20.637668579346446
H -6.8477155640786345 -5.9242555234598235 20.043134251715944
H -7.0374369183466765 -6.840231360173742 21.250001819799092
O 8.289699239820942 12.702676465602227 5.34235546741246
H 7.403868085186861 12.925624507873534 5.665720111161656
H 8.123690170823437 12.222847411166624 4.517027040766428
O 11.13394859456676 -11.042900900178994 -3.090868252182326
H 10.467161642619656 -10.96948373222273 -2.391602610911163
H 10.723569785314908 -10.606255985559503 -3.8523749138432537
O -8.23687576655361 5.5777657197446295 -8.574107067132298
H -7.942521489138484 5.42906544199424 -9.485266297818338
H -8.717076301639443 4.767055333159514 -8.348014034319934
O -9.867943525019733 15.311680724985107 4.668146182349592
H -10.362427228303453 15.294303408581982 5.501303582221577
H -10.495392835283187 14.96475333260583 4.0162944417161635
O 4.33656779887736 -12.084105779587677 1.7534989925251603
H 4.369025168414292 -12.039927358198675 0.7860476277804931
H 3.4937123494234976 -12.524496014311481 1.9395448922000564
O 8.567902198180883 -12.984920009893095 0.5065857042293231
H 9.458953254139768 -13.196350893150479 0.8232753854309047
H 8.67471418503455 -12.898860778416973 -0.45265720163035095
O -10.274566978644742 -0.572217843961031 17.55597936953979
H -10.5739380679686 -0.526929084379864 16.635494043186
H -11.077759123220495 -0.4055575791888888 18.07179782533396
O -10.892752339500989 11.928784436392718 -5.594353089531298
H -11.366194558016442 12.154950367158207 -6.4090117876301695
H -10.072001389652055 12.440784944136212 -5.650791575447217
O 11.87084170690844 -11.279885664329655 -8.751113151240695
H 11.626172766008565 -10.821340608802581 -7.933286214590521
H 11.164010811030135 -11.045703345422503 -9.371202395175096
O -1.0338693543661623 -14.862692594038993 -11.404734448019623
H -1.4747668381135286 -14.31499378487815 -12.071519855905125
H -1.1414946008665874 -14.361978702313406 -10.582138344668323
O 9.459619796043468 -8.573373709821125 0.01811158087057496
H 9.051279239519129 -9.007605941319442 -0.7458699083851443
H 9.14373257148767 -9.087710007068061 0.776158663179285
O -12.020429834972878 2.5428365346444792 -6.4623814308051815
H -11.904287114468815 2.8292894905861914 -5.544000829199196
H -11.146628966605837 2.209378356081542 -6.715836811277745
O -15.85690393951349 5.559318296755302 -9.77180889148546
H -15.836024377005659 5.487027726408624 -10.737886255990206
H -15.112572068413545 5.011804928494381 -9.479985106402014
O -9.361441235814146 -3.763791822265796 -2.2713859037354367
H -9.7204629883434 -3.480513715498587 -1.41708838393498
H -8.727160928299238 -3.068137745617999 -2.500985210010723
O 12.609519181425936 -10.843273342077385 20.631678249532275
H 13.062859678286038 -11.699690150474726 20.631711433156436
H 13.192217080502994 -10.270017121912712 20.111291461888996