194

C -5.0710522388059704 1.0783507462686561 0.47044029850746183
C -3.8153522388059704 0.1782507462686569 0.19534029850746193
C -4.11845223880597 -1.3219492537313435 0.5608402985074619
C -2.96945223880597 -2.3874492537313436 0.7034402985074619
C -2.52015223880597 0.7359507462686565 0.7384402985074618
C -2.20305223880597 0.7852507462686571 2.097440298507462
C -1.5755522388059702 1.205650746268656 -0.18965970149253808
C -0.9533522388059701 1.2695507462686564 2.508640298507462
H -2.91125223880597 0.4298507462686567 2.840840298507462
C -0.32655223880597006 1.6562507462686575 0.21554029850746192
H -1.7850522388059702 1.178550746268657 -1.2573597014925382
C 0.004447761194029898 1.6956507462686563 1.569740298507462
H -0.7158522388059702 1.2676507462686573 3.5705402985074617
H 0.3943477611940298 1.9193507462686572 -0.5551597014925382
C -1.76045223880597 -2.1592492537313435 -0.1734597014925381
C -0.5287522388059701 -1.936549253731343 0.464840298507462
C -1.8068522388059702 -2.121249253731343 -1.5681597014925381
C 0.6114477611940299 -1.614449253731343 -0.2582597014925381
H -0.4544522388059702 -1.954049253731343 1.5506402985074619
C -0.6479522388059701 -1.8270492537313432 -2.2998597014925384
H -2.74345223880597 -2.290549253731343 -2.092259701492538
C 0.5698477611940298 -1.5506492537313434 -1.6506597014925382
H 1.5072477611940298 -1.351949253731343 0.2991402985074618
H -0.7173522388059701 -1.7640492537313435 -3.3840597014925375
C 1.7791477611940298 -1.082849253731343 -2.4255597014925376
H 1.4739477611940297 -0.9102492537313429 -3.464259701492538
H 2.1252477611940295 -0.1337492537313434 -2.0010597014925384
C 1.3965477611940298 2.0964507462686566 1.997440298507462
H 1.51704776119403 1.8448507462686567 3.057640298507462
H 2.1256477611940294 1.5207507462686571 1.4165402985074618
C 3.94864776119403 -1.4275492537313434 -3.522959701492538
H 4.81734776119403 -2.087049253731343 -3.615159701492538
H 3.4305477611940303 -1.3641492537313429 -4.484459701492538
H 4.26984776119403 -0.441449253731343 -3.176459701492538
C 2.60904776119403 -3.4296492537313434 -2.8992597014925376
H 1.9825477611940296 -3.869549253731343 -2.119359701492538
H 2.06294776119403 -3.373349253731343 -3.845759701492538
H 3.5215477611940305 -4.019849253731343 -3.0234597014925377
C 3.7281477611940304 -2.060049253731343 -1.156659701492538
H 3.9048477611940298 -1.032549253731343 -0.8295597014925382
H 3.12924776119403 -2.623249253731343 -0.4404597014925382
H 4.68244776119403 -2.5769492537313434 -1.3005597014925383
C 3.1110477611940297 3.755250746268656 2.588740298507462
H 3.40124776119403 4.809350746268656 2.534540298507462
H 2.9823477611940303 3.461750746268656 3.634840298507462
H 3.86514776119403 3.1392507462686563 2.091540298507462
C 1.99744776119403 3.9574507462686572 0.40494029850746194
H 2.67914776119403 3.230350746268657 -0.04295970149253803
H 1.03214776119403 3.981150746268657 -0.10175970149253821
H 2.4399477611940297 4.958250746268657 0.368240298507462
C 0.7418477611940297 4.4992507462686575 2.475440298507462
H -0.18475223880597014 4.424250746268656 1.901240298507462
H 0.57844776119403 4.189650746268656 3.511940298507462
H 1.1210477611940297 5.524350746268658 2.4432402985074617
N 3.00114776119403 -2.025349253731343 -2.490159701492538
N 1.7831477611940298 3.586450746268657 1.862540298507462
C -3.55075223880597 -3.8435492537313434 0.6444402985074619
H -2.62515223880597 -2.2736492537313433 1.7424402985074618
H -4.67195223880597 -1.3478492537313436 1.5102402985074619
H -4.83415223880597 -1.6757492537313432 -0.1945597014925382
H -3.7169522388059697 0.17335074626865676 -0.900559701492538
H -3.9132522388059705 -4.043149253731343 -0.34225970149253815
H -4.35435223880597 -3.9354492537313432 1.3449402985074619
H -2.78115223880597 -4.545049253731343 0.8904402985074619
H -5.24235223880597 1.138950746268657 1.5249402985074618
H -5.92805223880597 0.6501507462686567 -0.006059701492538094
H -4.89895223880597 2.059650746268657 0.08004029850746197
C -2.9743489647635677 4.237410185864343 -0.7795513647119428
O -3.4702133518997167 4.891055177158323 -1.6843398668086393
O -3.6083686523016034 3.603504005410368 0.07180840312796688
O -1.7617713421518852 4.108685943382747 -0.5752624444569772
O 6.573665306108234 4.489943423861948 -7.549598045178666
H 6.244969884515357 5.284450591647369 -7.996459362660356
H 6.545358674581978 3.8066562351183526 -8.236095894126871
O 9.847185062391546 1.2473529243528185 7.010805125834863
H 9.866145688039635 0.7656639057259707 7.85139036298178
H 10.028061929466475 0.5656899579036203 6.346289434952517
O -5.592338350322469 6.853498957892999 3.720388235966322
H -6.366671136598008 6.785120522761978 3.141855192305205
H -5.015983856762883 7.486345419479152 3.2662045747547404
O 0.8046093724224233 8.904760797494578 0.6318942795474851
H 1.492020327148078 8.489832762253643 0.08942929284856227
H 0.07386292505295478 8.268747677023667 0.6104726889027301
O -8.32103437345225 4.477266460459582 -4.225499199051035
H -7.848061424739551 4.987869269130557 -4.89970148209621
H -9.234250243645544 4.452398862392775 -4.548578634010137
O 5.06706662500097 2.7735731488740907 -3.513078320925545
H 4.789534914384352 2.29897673285255 -4.311014250936045
H 5.672536618287782 3.453879498882317 -3.84406367055261
O 2.320522899606431 -6.503935056959023 2.7315869131158967
H 3.186973786666795 -6.151786091977924 2.9850061777250634
H 1.9534519391312215 -5.82401638229275 2.1468378642788206
O -5.150307595374363 5.048096383345075 4.471686415004071
H -5.488381181514067 4.179001983454574 4.2083453218689275
H -5.524813934322177 5.187246895090622 5.354491082792396
O -5.383072071652706 -1.0774435133330258 8.003185326081963
H -5.1960580660718225 -1.247300997359441 8.938675333370556
H -5.656093975656737 -0.1478969811881724 7.984100546505292
O 5.606541124458316 -2.1442451448720097 2.947467985988699
H 4.919451312234075 -2.6613383809035946 3.3941104963793265
H 5.211413837709511 -1.2648577009316486 2.8499277634824676
O 7.90843102568833 7.436788631334424 4.032267978209834
H 8.728743871696057 6.931555258574468 4.136159414932525
H 7.237596427484462 6.760201796245015 3.8557088075719155
O -1.8691437861188387 -6.662329858241738 1.497816360608025
H -1.193208434714252 -6.977272598448518 0.8790354397542843
H -2.705472407999873 -6.921609581211685 1.0827375659446525
O 5.33931111393601 -6.95982441069366 2.7429605327498163
H 5.785808357208184 -6.204976416971202 2.3308779257114587
H 5.546580306995152 -6.868546948722965 3.6851228599762873
O -1.0922586754772845 -0.9078890898018619 -7.761258910110812
H -1.3529854645062092 -0.9014454929937918 -8.694504525392686
H -1.789078005750976 -1.422593905573643 -7.327111794632359
O 7.660260157771037 -1.4389441663367921 -1.6436459933357703
H 7.040736675762808 -2.164108409986923 -1.8148033240923938
H 7.129058467987859 -0.6401195868381446 -1.7802695647292301
O 6.650510761612308 5.074581567402111 0.13401495727238233
H 6.336696349343663 4.294836554392833 0.6161825487171475
H 6.490847715693004 5.808381297293745 0.7463936084994933
O -3.689379424025759 -4.41843399192615 -3.2799754076127883
H -3.1601745573225153 -5.220009810069128 -3.407982336042538
H -4.512060151666419 -4.602315332202711 -3.757831052516905
O 1.4000087929426788 -2.5349017622561147 -6.742398676932796
H 1.88032332982704 -2.0052674294265085 -7.3964267925713365
H 0.48227408031110874 -2.514039004220758 -7.052704472654057
O 1.5747485162524713 1.595617170611798 7.474487124348659
H 1.8868933918733362 0.7174900307702674 7.739865457671803
H 1.2697008236852496 1.995734625354666 8.302625924290737
O -1.8354473058565173 -6.607782996172418 -7.499038730368257
H -1.3941895384071854 -7.469489748980929 -7.457560884114583
H -1.1675197518418057 -6.02111088635885 -7.884591012756547
C -18.220135652181607 -5.139172720740001 9.930536771116781
O -18.652650684609977 -6.168328656800805 10.36249401818447
O -17.787620619753238 -4.110016784679196 9.498579524049093
O -11.351279716877835 9.511592175957542 -4.8375415123909375
H -10.89363452630512 9.058766435720004 -4.113333610318616
H -10.674668753675373 10.094214560758944 -5.213986336372571
O -4.707674701095311 -5.096483790306044 -12.094170635770194
H -3.880729784302361 -5.510261473732679 -11.804485478766267
H -5.363482350753362 -5.410611814969253 -11.453700609093556
O 6.421635160252478 13.742988678460605 -3.068689546960372
H 6.264013482990162 13.638271044640021 -2.1183438304318907
H 7.071354905443409 13.054456861201285 -3.2754506013942457
O 9.878727901450258 -11.039859673905852 3.0606717529904035
H 9.510091713951532 -10.160256779028849 2.88928486466343
H 9.543410045539357 -11.26669812196476 3.9410513292468847
O 5.1816954529052675 1.4083141297347987 11.874086702927569
H 5.424892965245091 1.2257691815037708 10.95403253671394
H 5.023604504321861 0.5305752914407482 12.252958354052602
O -1.3347514364140878 -5.626494219510954 -10.080668275670591
H -1.9512227355013163 -6.346884255329476 -9.88074656450571
H -0.48768126784823274 -6.07556144164648 -10.221283722294686
O -12.881862911167213 -8.744966512120294 -2.9818171400060116
H -12.582089430404293 -9.502085015024626 -2.4565792989366644
H -12.685913069089318 -7.979087014081014 -2.421465287887409
O -3.9609141164191186 20.98248679210414 12.16338435078158
H -3.9689052526199706 20.884593856321768 13.127397043522773
H -4.898363288046573 21.047755394080248 11.926971566628351
O -6.966194033605343 -2.1867523690122317 -2.623299369005597
H -7.124459899024766 -2.831689611492459 -3.3289729663613734
H -6.085090209678451 -1.8351809847964968 -2.820822931048305
O -20.262721624728858 12.029809208465437 -12.59489397533686
H -20.392434636441525 11.996195439400765 -13.554587679610105
H -19.33858661631131 11.764545396452412 -12.474181339074443
O -0.9176226082713845 14.19160846296493 -5.673995899364262
H -1.7891978839748135 14.220147115948242 -5.251492123087184
H -1.0987225903917972 13.846242421005284 -6.561062434544748
O 7.6693211859442005 8.921429777778638 15.806948095177528
H 6.936540954447418 9.057090745940995 15.187596344598928
H 7.422898909824507 9.450368103028813 16.580551516972914
O 1.94434517978199 -2.4026732360932384 -9.715940576825156
H 2.2643290391096182 -3.0724843899856076 -9.093099742589658
H 2.706515812754435 -2.2337447099999777 -10.289979794654688
O -11.902186780806689 3.37517803852354 22.400678438975234
H -12.735697690265827 3.8681077457279542 22.43599450427092
H -11.520308595792313 3.6221003301450434 21.545014732832158
O -20.26962991105594 -7.044561857526874 5.270659318745773
H -20.756834537683975 -7.794805850538479 4.898190582282915
H -20.885266640140653 -6.661643855663671 5.913564573002542
O 7.313404999536078 -1.5547718943343658 12.150274749403533
H 7.3870501524611765 -1.5597704606121936 11.184087002283022
H 6.4730997676319975 -2.0052305424371 12.323295175608312
O -0.016742095221678494 -10.126225893673942 -4.1114207198784785
H 0.12681682589977955 -11.031804739330015 -4.424925340843879
H -0.44633767172857197 -10.241891142943729 -3.2505890667330637
O -7.378236683228256 -3.673968255563111 17.620996534060076
H -8.342486336740702 -3.6749921319385463 17.71685535878839
H -7.211514407305358 -3.005906131532743 16.939191117942602
O -4.635548695557599 16.126007616281008 4.194411138734367
H -4.138594115427552 16.469428257516274 3.436739860829939
H -4.14564421719575 15.331628831837282 4.455021754801161
O -6.802507734652413 1.9949638697761571 5.530506230137792
H -6.15907162482241 2.385236117725678 4.92005975259266
H -7.613636422946804 1.9284705043454435 5.004568184661409