194

C -5.0710522388059704 1.0783507462686561 0.47044029850746183
C -3.8153522388059704 0.1782507462686569 0.19534029850746193
C -4.11845223880597 -1.3219492537313435 0.5608402985074619
C -2.96945223880597 -2.3874492537313436 0.7034402985074619
C -2.52015223880597 0.7359507462686565 0.7384402985074618
C -2.20305223880597 0.7852507462686571 2.097440298507462
C -1.5755522388059702 1.205650746268656 -0.18965970149253808
C -0.9533522388059701 1.2695507462686564 2.508640298507462
H -2.91125223880597 0.4298507462686567 2.840840298507462
C -0.32655223880597006 1.6562507462686575 0.21554029850746192
H -1.7850522388059702 1.178550746268657 -1.2573597014925382
C 0.004447761194029898 1.6956507462686563 1.569740298507462
H -0.7158522388059702 1.2676507462686573 3.5705402985074617
H 0.3943477611940298 1.9193507462686572 -0.5551597014925382
C -1.76045223880597 -2.1592492537313435 -0.1734597014925381
C -0.5287522388059701 -1.936549253731343 0.464840298507462
C -1.8068522388059702 -2.121249253731343 -1.5681597014925381
C 0.6114477611940299 -1.614449253731343 -0.2582597014925381
H -0.4544522388059702 -1.954049253731343 1.5506402985074619
C -0.6479522388059701 -1.8270492537313432 -2.2998597014925384
H -2.74345223880597 -2.290549253731343 -2.092259701492538
C 0.5698477611940298 -1.5506492537313434 -1.6506597014925382
H 1.5072477611940298 -1.351949253731343 0.2991402985074618
H -0.7173522388059701 -1.7640492537313435 -3.3840597014925375
C 1.7791477611940298 -1.082849253731343 -2.4255597014925376
H 1.4739477611940297 -0.9102492537313429 -3.464259701492538
H 2.1252477611940295 -0.1337492537313434 -2.0010597014925384
C 1.3965477611940298 2.0964507462686566 1.997440298507462
H 1.51704776119403 1.8448507462686567 3.057640298507462
H 2.1256477611940294 1.5207507462686571 1.4165402985074618
C 3.94864776119403 -1.4275492537313434 -3.522959701492538
H 4.81734776119403 -2.087049253731343 -3.615159701492538
H 3.4305477611940303 -1.3641492537313429 -4.484459701492538
H 4.26984776119403 -0.441449253731343 -3.176459701492538
C 2.60904776119403 -3.4296492537313434 -2.8992597014925376
H 1.9825477611940296 -3.869549253731343 -2.119359701492538
H 2.06294776119403 -3.373349253731343 -3.845759701492538
H 3.5215477611940305 -4.019849253731343 -3.0234597014925377
C 3.7281477611940304 -2.060049253731343 -1.156659701492538
H 3.9048477611940298 -1.032549253731343 -0.8295597014925382
H 3.12924776119403 -2.623249253731343 -0.4404597014925382
H 4.68244776119403 -2.5769492537313434 -1.3005597014925383
C 3.1110477611940297 3.755250746268656 2.588740298507462
H 3.40124776119403 4.809350746268656 2.534540298507462
H 2.9823477611940303 3.461750746268656 3.634840298507462
H 3.86514776119403 3.1392507462686563 2.091540298507462
C 1.99744776119403 3.9574507462686572 0.40494029850746194
H 2.67914776119403 3.230350746268657 -0.04295970149253803
H 1.03214776119403 3.981150746268657 -0.10175970149253821
H 2.4399477611940297 4.958250746268657 0.368240298507462
C 0.7418477611940297 4.4992507462686575 2.475440298507462
H -0.18475223880597014 4.424250746268656 1.901240298507462
H 0.57844776119403 4.189650746268656 3.511940298507462
H 1.1210477611940297 5.524350746268658 2.4432402985074617
N 3.00114776119403 -2.025349253731343 -2.490159701492538
N 1.7831477611940298 3.586450746268657 1.862540298507462
C -3.55075223880597 -3.8435492537313434 0.6444402985074619
H -2.62515223880597 -2.2736492537313433 1.7424402985074618
H -4.67195223880597 -1.3478492537313436 1.5102402985074619
H -4.83415223880597 -1.6757492537313432 -0.1945597014925382
H -3.7169522388059697 0.17335074626865676 -0.900559701492538
H -3.9132522388059705 -4.043149253731343 -0.34225970149253815
H -4.35435223880597 -3.9354492537313432 1.3449402985074619
H -2.78115223880597 -4.545049253731343 0.8904402985074619
H -5.24235223880597 1.138950746268657 1.5249402985074618
H -5.92805223880597 0.6501507462686567 -0.006059701492538094
H -4.89895223880597 2.059650746268657 0.08004029850746197
C 0.00712335916840523 1.9627861968299072 -3.7440595322416272
O 0.5525934267255208 0.8816649825416988 -3.903479807035095
O 0.2577122518784638 2.7597902198264626 -2.83267527833022
O -0.8798954404000843 2.4271675543965756 -4.469453210430661
O 4.584378713904039 -3.928670371998682 2.40572215055294
H 4.93726300682454 -4.6065908590395805 1.8100176550518314
H 5.372664496243933 -3.4642216320167276 2.7248691975233847
O 0.45480032084387423 -8.959104610920184 -3.657811648430444
H 0.721839429519092 -9.241105096053385 -4.545580310708285
H 0.732888327581489 -9.690572493917482 -3.0863365912738363
O 9.396913391658046 -1.8836093184397615 -4.0260559023038525
H 9.430475011024766 -0.932752002175164 -4.209662380162264
H 10.323669513810142 -2.163241542548632 -4.069539848692562
O 11.058683738791606 1.1455577025810904 7.119229569652955
H 10.135805772642252 1.0208830016676318 7.387035162290924
H 11.008519102519799 1.2765150055949386 6.160430509184572
O -0.9041884823641488 -2.2309912930523073 -5.525065235391276
H -1.100940642564223 -3.130786850916603 -5.826103270204631
H -1.2645863758481823 -1.6659720577438697 -6.224942772110193
O 8.023922005517276 1.7109981624220079 4.144887504007222
H 7.935084316736965 2.5982069021730068 3.7654986875383947
H 8.84970927413437 1.7540642571014886 4.650043561853687
O -6.030930111872523 -4.917744457215683 -2.009990776731278
H -5.699741510088828 -5.389261330426713 -2.7890628563399975
H -6.172428681834245 -5.6179281732590685 -1.3552520022673975
O -6.025151309575147 -0.3201699321509636 -5.800567305121899
H -6.51200978327995 -0.09207803608581244 -6.606737430114903
H -5.404471891614363 -1.0064381294118532 -6.0882389336293885
O -2.393577224655958 4.5605740843346805 4.285184193732434
H -2.573272603675585 4.262218346082648 5.18943016752003
H -2.282870997715239 5.519245550764603 4.372677593881528
O 7.134375169406537 -5.3920100576217695 5.982323124336584
H 7.11604318569635 -5.411683120661436 5.013693026794757
H 7.049730797377071 -6.323108916657601 6.236984054370841
O -6.451766290784244 -4.462341539645179 3.042930253768833
H -6.15334137340761 -3.72404666876803 2.490815583410181
H -7.050746325733029 -4.0489834437887975 3.6827114246567683
O -4.4340485208667575 -1.1585426249777995 8.147403524069492
H -3.9233872537747283 -0.33585131323866946 8.184436384894909
H -4.089535949983665 -1.6813630186438315 8.886951946264023
O 4.77647261381988 2.7434459944672622 8.28041131797497
H 5.348040296439384 3.453273451542564 8.609687375815472
H 5.296310667956423 2.3336072458789134 7.572765543644995
O 2.1941713411815975 -7.901323925053043 -1.116642515265968
H 2.3733261015967964 -8.749202966184624 -1.5501999628209175
H 3.0746995872138734 -7.552597061700842 -0.9116509861340089
O -1.0001622247444417 -6.110349532047742 2.5149968065670842
H -1.0576778180697977 -6.188638779017422 3.479118223834304
H -1.255260105684875 -6.988059314693464 2.1932631389354573
O -4.053588734432479 6.173796618591436 -2.4942490855957997
H -3.5123106446998564 6.071627008085948 -1.6970372209295985
H -4.645554012726867 6.911108397797919 -2.2823283602355446
O 1.211520266084507 7.358608168257488 4.702481184179811
H 0.5580241008330087 6.7466291396649245 4.3318172022979855
H 1.4713995092644656 6.94486731662772 5.539286556388237
O 2.6307284548343324 -5.267974609765947 3.6993949222943754
H 2.4568817796017965 -4.982579208960252 4.608952042880846
H 2.3871349344346546 -4.499149358323541 3.16224329205966
O 4.214945632874895 1.3924724445567302 0.14582621976231092
H 4.342942359607408 0.640200704258745 0.7430459645755616
H 3.3626214783350488 1.2121384786623892 -0.27842033665595234
O 4.264515191080509 -3.77410261238199 -9.095360601586911
H 4.312144930190548 -3.9756265633338117 -8.14874195501107
H 4.814719404758839 -4.4567419279991105 -9.507963112878834
C -2.1569591530938133 -15.36885730064182 3.6257071702487935
O -2.857792938626209 -16.160216109684576 4.187313346948054
O -1.4561253675614174 -14.577498491599062 3.0641009935495345
O 11.292847568542951 15.209807027816984 2.061399715452386
H 11.954914211069253 14.521357468710324 1.8980830833544955
H 11.713740620970599 16.020643599191438 1.738359412641957
O -2.8203815309821305 18.089854902444237 -1.8670643029955292
H -2.4566374386088627 17.552081924565897 -2.5864097112851807
H -2.2568496769934407 18.878063612583407 -1.8560723468083742
O 14.73201233756268 7.612417575607169 -13.855697117929475
H 14.74141444634728 7.618221640170522 -12.88675683592808
H 15.0335654389018 8.500847727606693 -14.098018261024464
O -3.884045452811325 13.588638852012696 -0.8522655415877436
H -3.9218505420791967 13.817508734869957 -1.7930932138244562
H -4.024847832884163 12.630018148481705 -0.8387385009812078
O 9.270213953889957 -5.347470285939724 -11.937344746916715
H 9.196487764725186 -5.635705037034238 -11.015144912719853
H 8.411201465935234 -5.5757245560889945 -12.32329743572256
O -4.2691461401089 13.392901617521222 -16.69722279246168
H -4.45104673290337 13.249321641854234 -17.638107653551756
H -4.173209137444858 12.498011011767728 -16.338156169738284
O -1.4496077517128425 -5.030231277241105 22.151652056079634
H -0.9878517113447978 -5.433388949943418 21.401177135096336
H -1.9281164751923927 -5.769240761562919 22.556443765402314
O 13.895725121025492 8.910618112422368 -8.920911371535006
H 13.647971074716073 9.474618752975939 -9.66890105521552
H 13.751454531271854 8.010262854664731 -9.248796032750372
O -6.804371543060187 -3.162818090994874 -11.75103404431199
H -7.158083426042538 -2.586003152231001 -12.444676450134983
H -6.131677861661977 -3.6911053907979743 -12.206399484561546
O 4.896519196727537 -15.920237303022256 3.1310917352975194
H 5.303966329640123 -15.945395790820037 4.009909828689459
H 5.509772322551159 -16.423090152534527 2.574295938164543
O 13.730641401141296 4.829970540137379 -11.326160401682797
H 13.384600137793758 5.097157900124979 -10.461386607200277
H 14.624304054998102 5.204028526903661 -11.346399668911872
O -13.95713021686999 0.1188043900908542 -3.163013295821078
H -14.866659775120546 -0.10624754212261545 -3.410146796940479
H -13.706205934600606 0.8079452542642542 -3.7963250817479883
O 15.471800468026007 1.0975669089175017 -6.129047395369351
H 15.592193878193918 0.9640784673264777 -5.176863789309184
H 15.408616037351532 2.0597967755127424 -6.224354036546399
O 0.26113174969693115 -3.4386773396280086 6.273042311872301
H -0.380545519059457 -3.3767488516405306 5.549590515249382
H 0.33908287751174554 -4.390706858611419 6.435908394764391
O 9.850191806907091 -3.889405040108726 -8.301899859937384
H 9.37015743121571 -3.915895656015027 -9.143227740328548
H 9.357717022808618 -4.499156304549023 -7.732133305249745
O 4.739900226742216 14.608269680514132 -0.15676181043782922
H 4.867336193041441 15.253909795290516 0.5544879864583949
H 4.282277771012247 13.871429299309675 0.275221852376101
O -3.0593979021212876 13.283855509784082 3.8120360379967564
H -3.088568112849468 13.895971434784258 3.061415927643153
H -3.812200338242611 12.692640342534572 3.66132086794432
O 3.3482431284491248 -1.9360068555394747 -19.100877210870237
H 3.17079033122824 -2.5220107190052303 -19.851928030496772
H 3.845501022484017 -1.2009298465293412 -19.489925179563944
O -12.29769256045707 11.813116890921645 5.472153612598817
H -13.195832683836933 11.867220902440682 5.11245313774125
H -12.42534965220233 11.472120778345724 6.370144293193693
O -20.247098726373682 -1.9221997489456994 11.477167744683713
H -19.907317539065193 -2.232471975735475 10.624379818564826
H -19.699408471662128 -2.384274026733686 12.129459620304363