194

C -5.0710522388059704 1.0783507462686561 0.47044029850746183
C -3.8153522388059704 0.1782507462686569 0.19534029850746193
C -4.11845223880597 -1.3219492537313435 0.5608402985074619
C -2.96945223880597 -2.3874492537313436 0.7034402985074619
C -2.52015223880597 0.7359507462686565 0.7384402985074618
C -2.20305223880597 0.7852507462686571 2.097440298507462
C -1.5755522388059702 1.205650746268656 -0.18965970149253808
C -0.9533522388059701 1.2695507462686564 2.508640298507462
H -2.91125223880597 0.4298507462686567 2.840840298507462
C -0.32655223880597006 1.6562507462686575 0.21554029850746192
H -1.7850522388059702 1.178550746268657 -1.2573597014925382
C 0.004447761194029898 1.6956507462686563 1.569740298507462
H -0.7158522388059702 1.2676507462686573 3.5705402985074617
H 0.3943477611940298 1.9193507462686572 -0.5551597014925382
C -1.76045223880597 -2.1592492537313435 -0.1734597014925381
C -0.5287522388059701 -1.936549253731343 0.464840298507462
C -1.8068522388059702 -2.121249253731343 -1.5681597014925381
C 0.6114477611940299 -1.614449253731343 -0.2582597014925381
H -0.4544522388059702 -1.954049253731343 1.5506402985074619
C -0.6479522388059701 -1.8270492537313432 -2.2998597014925384
H -2.74345223880597 -2.290549253731343 -2.092259701492538
C 0.5698477611940298 -1.5506492537313434 -1.6506597014925382
H 1.5072477611940298 -1.351949253731343 0.2991402985074618
H -0.7173522388059701 -1.7640492537313435 -3.3840597014925375
C 1.7791477611940298 -1.082849253731343 -2.4255597014925376
H 1.4739477611940297 -0.9102492537313429 -3.464259701492538
H 2.1252477611940295 -0.1337492537313434 -2.0010597014925384
C 1.3965477611940298 2.0964507462686566 1.997440298507462
H 1.51704776119403 1.8448507462686567 3.057640298507462
H 2.1256477611940294 1.5207507462686571 1.4165402985074618
C 3.94864776119403 -1.4275492537313434 -3.522959701492538
H 4.81734776119403 -2.087049253731343 -3.615159701492538
H 3.4305477611940303 -1.3641492537313429 -4.484459701492538
H 4.26984776119403 -0.441449253731343 -3.176459701492538
C 2.60904776119403 -3.4296492537313434 -2.8992597014925376
H 1.9825477611940296 -3.869549253731343 -2.119359701492538
H 2.06294776119403 -3.373349253731343 -3.845759701492538
H 3.5215477611940305 -4.019849253731343 -3.0234597014925377
C 3.7281477611940304 -2.060049253731343 -1.156659701492538
H 3.9048477611940298 -1.032549253731343 -0.8295597014925382
H 3.12924776119403 -2.623249253731343 -0.4404597014925382
H 4.68244776119403 -2.5769492537313434 -1.3005597014925383
C 3.1110477611940297 3.755250746268656 2.588740298507462
H 3.40124776119403 4.809350746268656 2.534540298507462
H 2.9823477611940303 3.461750746268656 3.634840298507462
H 3.86514776119403 3.1392507462686563 2.091540298507462
C 1.99744776119403 3.9574507462686572 0.40494029850746194
H 2.67914776119403 3.230350746268657 -0.04295970149253803
H 1.03214776119403 3.981150746268657 -0.10175970149253821
H 2.4399477611940297 4.958250746268657 0.368240298507462
C 0.7418477611940297 4.4992507462686575 2.475440298507462
H -0.18475223880597014 4.424250746268656 1.901240298507462
H 0.57844776119403 4.189650746268656 3.511940298507462
H 1.1210477611940297 5.524350746268658 2.4432402985074617
N 3.00114776119403 -2.025349253731343 -2.490159701492538
N 1.7831477611940298 3.586450746268657 1.862540298507462
C -3.55075223880597 -3.8435492537313434 0.6444402985074619
H -2.62515223880597 -2.2736492537313433 1.7424402985074618
H -4.67195223880597 -1.3478492537313436 1.5102402985074619
H -4.83415223880597 -1.6757492537313432 -0.1945597014925382
H -3.7169522388059697 0.17335074626865676 -0.900559701492538
H -3.9132522388059705 -4.043149253731343 -0.34225970149253815
H -4.35435223880597 -3.9354492537313432 1.3449402985074619
H -2.78115223880597 -4.545049253731343 0.8904402985074619
H -5.24235223880597 1.138950746268657 1.5249402985074618
H -5.92805223880597 0.6501507462686567 -0.006059701492538094
H -4.89895223880597 2.059650746268657 0.08004029850746197
C 0.23281051728660157 2.758109949030129 -4.414143852411588
O -0.918646475371645 2.8795209353862545 -4.802964717400157
O 0.5912026283940723 2.778160875313339 -3.2310189565738257
O 1.2178741080358726 2.596402653673149 -5.143629189624395
O -1.6108746813356927 -3.923444399746994 5.959234706439804
H -2.254818521752495 -3.199391510820539 5.95208618725646
H -1.6718808733182895 -4.282074678511821 6.857357477553443
O -5.526562074634418 -5.736667850449995 2.434231930637892
H -5.28041454387556 -5.757394506082759 3.371221341329176
H -6.4942546495880205 -5.78576398444585 2.445304161954385
O 6.609453584505556 7.169607084940893 -1.1005918310056937
H 6.3921029914742515 6.281588514968865 -0.7794235013189419
H 6.18450858540216 7.214478184487327 -1.9702873389063087
O -3.8427654043733344 5.511531929272142 6.503286450419479
H -3.5501751297142072 5.616860051613184 7.4210360212278825
H -3.076208211411046 5.789674202729239 5.979846969740105
O -5.0421525143948696 -8.394565805307549 -6.746461377042079
H -5.4732871388440785 -8.02554625756028 -5.961022094932098
H -5.019061600513513 -7.653715500218295 -7.370616469503305
O 5.663077849326472 2.1688722847864708 11.682527713130582
H 4.769558537119155 2.4954552311862015 11.49831540427627
H 5.746655837403432 2.245868514271419 12.644841718460501
O 5.5250476147728556 1.9520918252503003 5.069355433411778
H 5.354236544718218 1.5481639217484502 5.933434818664887
H 5.971426274274338 1.2530340147354164 4.568330270171652
O 5.528047044427644 4.188245193074148 -5.148374134351918
H 5.491139983294531 4.150725441391102 -6.1159471258994085
H 6.0921886458936925 3.4384707089928006 -4.906414590593317
O -5.883203303352976 -0.5329062886176774 3.3995668247017603
H -6.489966917065479 -0.25411060594932455 2.6973715233076025
H -6.370835617578442 -0.34972561039723393 4.21664791587314
O 8.882797631787948 -0.016609813007992358 8.644021932148176
H 8.113265187444327 -0.5638363004474689 8.861577316929125
H 8.77235653140383 0.7724241082064554 9.19555631803803
O -0.5226187985324211 -7.522058787830037 0.5223976778539812
H 0.3236926962409843 -7.872021039368226 0.8390214817802282
H -0.39968444896984234 -6.561043672413635 0.5396903913144373
O -2.653224721651988 -4.022690780118789 9.22644508720846
H -3.0447611008647293 -3.6221650259756166 10.017169907181263
H -1.7745822362655654 -4.307816123842007 9.519110195379362
O -2.9462678984702766 -7.412767463091804 -3.0727645790962947
H -2.6135699766141105 -7.3960824392077 -2.162818943538556
H -2.438147275278114 -8.121757063938118 -3.4947943440164884
O -1.3992347596222654 0.16046312284867725 8.01075059885037
H -0.6021578346831499 -0.24059764142707718 8.388620941677315
H -1.340690334541029 1.0909885202040954 8.274676685981689
O -1.1984346463804978 -6.210603869702233 -5.868043295850184
H -1.3461036657497392 -7.0707395225122935 -5.446940129887806
H -1.4875498777601175 -6.3452539748477745 -6.783053501513816
O -4.37564804969458 1.1019336324704434 -8.446088516673203
H -5.213283745118368 0.8392971502265696 -8.856400442951825
H -3.7780223103991126 1.2333073354801103 -9.197451524938232
O -9.336161614854566 5.888894330638424 -3.430627932881757
H -8.920130331657594 5.620538755764867 -2.597638969127877
H -8.960211978278046 5.282277699299344 -4.086097289633701
O 5.848393268399474 1.0317333941965148 -3.1675753921178513
H 6.752554600229939 1.1742922084743512 -2.84955553834413
H 5.292128165117746 1.3932120162548542 -2.46127213928252
O 0.4716029718120027 -3.1367049481246827 5.72123566391323
H 0.7271096541865747 -3.1313152882471185 4.786540717030374
H -0.11608732621643147 -2.371123640019154 5.8076493120405726
O 0.06844876293080215 9.988656053030637 6.309334606048836
H 0.7034903528421874 10.392277994132503 6.919890798912346
H -0.5821808375073851 10.689176503483502 6.151492387897417
C 8.850301299671179 -8.160571276352641 10.152696358534854
O 9.438760654923016 -8.399522174925146 11.167307768182894
O 8.261841944419341 -7.9216203777801395 9.138084948886812
O 5.090153597926815 17.496299772061914 -4.638408001204362
H 4.84241772461731 17.538526397346057 -3.7025601470674356
H 4.588442120958595 16.740707690033787 -4.979477119939504
O 2.868384391392619 -7.1928623419124875 5.0181869697621035
H 3.018060599860124 -7.243072469445422 5.9742431044173445
H 3.716807144713068 -6.886512896699253 4.664222574143434
O -13.31478480251977 6.793823043865213 8.530260191100801
H -13.427161117386355 6.640663895082406 7.580059582860027
H -13.410381487036972 7.753372698882327 8.625589503307785
O -10.695866553018773 -2.4401807247238665 -14.226292847893
H -11.62359246105082 -2.1608887242098103 -14.209323024235294
H -10.213619646137918 -1.6709369082383931 -13.887672387934204
O 5.842408675714543 -13.0855186455156 0.7039276433767924
H 5.922210166946575 -13.009347092905898 1.6666305952109353
H 5.106013346900419 -12.495814054125246 0.482721045613819
O 5.0017993370351945 14.665703759779623 4.923811000881122
H 5.373681207768133 14.783154981366218 5.810871563451675
H 4.360088781713845 13.947777181094233 5.032212731062213
O -9.741443249863035 15.880831573887537 4.158151442026338
H -9.216060657359712 15.901840197733335 3.344210949042611
H -10.271363469258862 16.69098016868216 4.115657210326334
O 14.574372025596567 -0.4799865093064488 15.290767077783789
H 14.461402750778486 -0.13998747668062705 14.390430497575817
H 14.506009118410091 0.30896887644062065 15.849191518976781
O -2.412575806521587 5.360733144815773 12.746664515779731
H -2.434271863402077 4.635347709166928 12.10454878807609
H -1.4737396150100324 5.593324047163419 12.805401403279706
O -2.232232644447918 11.338512853902726 3.9867215227036046
H -2.0667526344123086 11.311165844154011 4.941098735464061
H -2.2717927757886867 10.405198494327598 3.7291924048952105
O -8.392412435869483 7.710218817142364 17.530230577910018
H -8.604518160797799 7.4454551841366206 18.437908239302125
H -9.236279912693943 8.028664663249746 17.176052841519276
O -2.079486134732966 10.374032047550712 -1.4018397347136105
H -2.0827204508301196 10.45017863047184 -2.367841077367347
H -2.660080723426047 11.092239323618013 -1.1084966310205147
O -5.149490306345541 10.917263147709955 -8.5085055345706
H -4.608226954386609 10.621223643716537 -9.255741744079689
H -5.15520286671134 11.882677528475737 -8.591598159783006
O 16.319645038004015 -0.7040922291610264 -7.958835223596719
H 15.429101970407782 -1.0620558328821001 -7.825559344056133
H 16.640012114873894 -1.1621976371158071 -8.750331474731514
O -2.161540012897921 6.905974334813452 -10.991804890137484
H -1.4967398260695266 6.29465156509516 -10.640674515893256
H -1.8728938533489397 7.067757722269724 -11.902558135764856
O -11.058438563189041 -20.855533243757193 9.382876308077918
H -10.750498447498309 -20.083028169595032 9.88024553957711
H -11.668410098140624 -21.298137438617328 9.991972521775745
O -15.326346623135365 -13.516478963606772 10.618213303746566
H -15.544713316325542 -12.872956921117932 9.927443642400487
H -14.473275672868159 -13.210922069490957 10.961530769903625
O -1.3471349501743628 20.235360623268054 -11.652237811780587
H -1.712838985184959 20.40245857078453 -12.533887510704568
H -1.3746737692494007 21.101850405717556 -11.219341733426251
O -4.934800100468358 4.418913873491172 -10.606627784726358
H -4.412256864616728 5.232300498484625 -10.54091536696938
H -5.167791788912638 4.365622202627328 -11.545689452154235
O -2.168176408766578 -7.887696362911019 -18.621979718340892
H -2.4120249452122655 -8.807862103144995 -18.80308813524347
H -1.2655298486455298 -7.948734733011986 -18.274898388999976