194

C -5.0710522388059704 1.0783507462686561 0.47044029850746183
C -3.8153522388059704 0.1782507462686569 0.19534029850746193
C -4.11845223880597 -1.3219492537313435 0.5608402985074619
C -2.96945223880597 -2.3874492537313436 0.7034402985074619
C -2.52015223880597 0.7359507462686565 0.7384402985074618
C -2.20305223880597 0.7852507462686571 2.097440298507462
C -1.5755522388059702 1.205650746268656 -0.18965970149253808
C -0.9533522388059701 1.2695507462686564 2.508640298507462
H -2.91125223880597 0.4298507462686567 2.840840298507462
C -0.32655223880597006 1.6562507462686575 0.21554029850746192
H -1.7850522388059702 1.178550746268657 -1.2573597014925382
C 0.004447761194029898 1.6956507462686563 1.569740298507462
H -0.7158522388059702 1.2676507462686573 3.5705402985074617
H 0.3943477611940298 1.9193507462686572 -0.5551597014925382
C -1.76045223880597 -2.1592492537313435 -0.1734597014925381
C -0.5287522388059701 -1.936549253731343 0.464840298507462
C -1.8068522388059702 -2.121249253731343 -1.5681597014925381
C 0.6114477611940299 -1.614449253731343 -0.2582597014925381
H -0.4544522388059702 -1.954049253731343 1.5506402985074619
C -0.6479522388059701 -1.8270492537313432 -2.2998597014925384
H -2.74345223880597 -2.290549253731343 -2.092259701492538
C 0.5698477611940298 -1.5506492537313434 -1.6506597014925382
H 1.5072477611940298 -1.351949253731343 0.2991402985074618
H -0.7173522388059701 -1.7640492537313435 -3.3840597014925375
C 1.7791477611940298 -1.082849253731343 -2.4255597014925376
H 1.4739477611940297 -0.9102492537313429 -3.464259701492538
H 2.1252477611940295 -0.1337492537313434 -2.0010597014925384
C 1.3965477611940298 2.0964507462686566 1.997440298507462
H 1.51704776119403 1.8448507462686567 3.057640298507462
H 2.1256477611940294 1.5207507462686571 1.4165402985074618
C 3.94864776119403 -1.4275492537313434 -3.522959701492538
H 4.81734776119403 -2.087049253731343 -3.615159701492538
H 3.4305477611940303 -1.3641492537313429 -4.484459701492538
H 4.26984776119403 -0.441449253731343 -3.176459701492538
C 2.60904776119403 -3.4296492537313434 -2.8992597014925376
H 1.9825477611940296 -3.869549253731343 -2.119359701492538
H 2.06294776119403 -3.373349253731343 -3.845759701492538
H 3.5215477611940305 -4.019849253731343 -3.0234597014925377
C 3.7281477611940304 -2.060049253731343 -1.156659701492538
H 3.9048477611940298 -1.032549253731343 -0.8295597014925382
H 3.12924776119403 -2.623249253731343 -0.4404597014925382
H 4.68244776119403 -2.5769492537313434 -1.3005597014925383
C 3.1110477611940297 3.755250746268656 2.588740298507462
H 3.40124776119403 4.809350746268656 2.534540298507462
H 2.9823477611940303 3.461750746268656 3.634840298507462
H 3.86514776119403 3.1392507462686563 2.091540298507462
C 1.99744776119403 3.9574507462686572 0.40494029850746194
H 2.67914776119403 3.230350746268657 -0.04295970149253803
H 1.03214776119403 3.981150746268657 -0.10175970149253821
H 2.4399477611940297 4.958250746268657 0.368240298507462
C 0.7418477611940297 4.4992507462686575 2.475440298507462
H -0.18475223880597014 4.424250746268656 1.901240298507462
H 0.57844776119403 4.189650746268656 3.511940298507462
H 1.1210477611940297 5.524350746268658 2.4432402985074617
N 3.00114776119403 -2.025349253731343 -2.490159701492538
N 1.7831477611940298 3.586450746268657 1.862540298507462
C -3.55075223880597 -3.8435492537313434 0.6444402985074619
H -2.62515223880597 -2.2736492537313433 1.7424402985074618
H -4.67195223880597 -1.3478492537313436 1.5102402985074619
H -4.83415223880597 -1.6757492537313432 -0.1945597014925382
H -3.7169522388059697 0.17335074626865676 -0.900559701492538
H -3.9132522388059705 -4.043149253731343 -0.34225970149253815
H -4.35435223880597 -3.9354492537313432 1.3449402985074619
H -2.78115223880597 -4.545049253731343 0.8904402985074619
H -5.24235223880597 1.138950746268657 1.5249402985074618
H -5.92805223880597 0.6501507462686567 -0.006059701492538094
H -4.89895223880597 2.059650746268657 0.08004029850746197
C -2.4598279750225984 1.4116044906835175 -3.2753238424405615
O -1.2732628494915534 1.6949311150160535 -3.215618520920406
O -3.38196684806191 2.226727401359023 -3.3930778377939315
O -2.9220992526001583 0.2658992213053185 -3.2272292892579033
O -3.8828525530030293 6.371994505929776 -7.223567462458078
H -4.095035266138838 5.654923166738646 -6.607325182460213
H -3.281998912179376 6.94239599781271 -6.720995094866424
O -5.519639544350764 -6.922697031475379 -6.33709685851119
H -6.208816459086507 -7.3321705962893 -5.792731230634207
H -4.931989007711165 -6.5007974833633355 -5.692403472171573
O -8.37917636685669 -1.87686316805922 5.994355640500832
H -8.368552021174855 -1.7415108003768545 6.953800384476018
H -8.223124269588382 -0.9920560448211999 5.631414816253377
O 6.790292876456424 4.0511516004334345 7.4349690547817255
H 6.698277056710001 4.0416007539870105 6.470391827625418
H 7.6193493863636395 3.575981138635674 7.595718175822461
O 3.5628856733068854 -5.957791366076028 1.1682176740226582
H 3.5374882628341906 -5.919531399666391 2.1361321864728104
H 4.456045460750223 -5.655191118898932 0.9453710253995987
O -1.7025810473489988 -0.7374329942435135 -11.460654220979425
H -1.522731455494295 -0.03544692939920874 -12.103955896691609
H -2.6080751410121987 -0.5583025573925576 -11.165773436195733
O 2.5760216415905886 -5.578333573418555 5.026833847367486
H 2.162276485492073 -5.119792059811396 5.773507794283992
H 3.2077989130125197 -6.1828591028185995 5.444408161613772
O -0.7716791615398251 -1.5267490080929353 -5.933517244258266
H -0.6092673266879914 -0.858637528124639 -5.250716538975507
H -0.3831568573561203 -2.335248346932614 -5.566991416317606
O 4.1271718225242795 -4.046184831712178 -9.406898844551716
H 3.1695723918021774 -3.998063764777514 -9.26670237491793
H 4.491290645867492 -4.120659415857402 -8.51200613416485
O -3.859742662313177 -3.064143257782926 -7.377950313364872
H -3.8112848899899197 -3.224431945272962 -8.332375133800818
H -2.933784553213971 -3.069488214322809 -7.092407048809378
O -9.079575900179158 -4.039893476488636 -5.300781733683707
H -8.623872253306068 -3.1904246564358822 -5.399291971145365
H -8.586687494797658 -4.638670452729041 -5.88171985161442
O 0.5806949253030118 5.437219543277845 -7.70511746775496
H -0.1464045244288319 5.476464297953562 -7.065779062581225
H 1.2874878585755867 5.952130022453519 -7.2876574191143435
O -2.6911476144400805 12.10249430366148 0.6031094127762335
H -3.39075839351207 11.43975378285867 0.5016839879937773
H -2.390314927632741 11.987284610938666 1.5169958201327427
O -8.371507837779193 -6.315866277280131 -3.216783254458035
H -8.866514490113106 -6.571120441491056 -2.42382607862938
H -7.494658063626554 -6.078978146646852 -2.8791733739249907
O -6.637595898305834 4.507481746577657 7.621614908384394
H -6.465239063714544 4.219703522110732 8.530704657524893
H -5.890294830748725 5.088472696223468 7.414364877847208
O 2.0987796063010182 3.1690553679039266 -4.1824965099780655
H 2.3904749455943684 3.4845694711960045 -3.3139736049500312
H 1.7024827855888804 3.9513464692226092 -4.594723882905985
O 7.911270270618093 3.584604022692954 -4.1979314178579585
H 7.50414901925007 3.4750624283409097 -3.3254520297396213
H 7.475704680762092 2.9140713042183775 -4.745316505970967
O -2.938394180098629 6.030004682184154 5.336794417860855
H -3.4122508135047616 6.583805829160754 4.698255822720037
H -2.5824001583208127 5.306097381241377 4.799962581621425
O 7.261781447532163 -1.3979348223499017 4.482159441316615
H 7.157588296292609 -1.579942342320936 3.536123286188934
H 8.190021785138226 -1.6111480712832056 4.660686555280538
O 4.971213461021111 4.823122028891662 -2.1133785201331663
H 5.002579064929623 4.727474085047113 -1.149617643862623
H 5.0926670035074295 3.919787723712462 -2.44231333799825
C 3.836184229666662 -10.69867907203447 -9.0455489976932
O 3.8271847465238515 -9.508184987980465 -9.169891679164923
O 3.8451837128094724 -11.889173156088473 -8.921206316221477
O -17.845040410699553 10.748907140597163 -2.8082176150179254
H -17.486335487491775 11.153165963225549 -2.003933498990749
H -17.31723108268892 11.13844764520312 -3.5214058460174957
O 8.925007772068351 -6.284657081203823 -2.389931614817726
H 9.185903343779202 -5.792741550524058 -1.5968868693980784
H 8.098631316491694 -5.8610882724828635 -2.666795050914416
O -4.778874018572117 -14.034408211884761 -15.84695598761612
H -5.402291885567155 -13.412949025216871 -15.441856000801202
H -5.054188170213804 -14.070382031597127 -16.775325497294848
O 7.043595947403727 -16.601056486146252 -0.8790892010922625
H 7.088948282265207 -16.563169324134687 0.08811040890420688
H 7.909752812060354 -16.275673861110008 -1.1669439864141757
O 7.530013961648547 -16.29435303758746 -4.047847202380562
H 8.38251754456244 -16.754950810803514 -4.040451979098638
H 6.915949300013795 -16.944483489196035 -4.42096505443622
O 8.845031113023499 8.232628284963262 -1.1856029188758572
H 9.040808687113902 8.808590380821963 -1.9398616029606552
H 7.994078512877936 8.559046786224169 -0.8565245412207947
O 13.014828300784197 -10.515641574574879 -7.597997854226043
H 12.73588320838848 -11.011299898740877 -6.813472636012313
H 13.243919973493002 -11.2039007460682 -8.240476073818588
O 4.509119529049315 9.086427223132587 5.044244199227364
H 4.835179737185766 8.63160620544241 4.253175340380494
H 5.3109922816017985 9.438286778240276 5.459162126645936
O -5.554449592518653 7.870855536757191 -7.657468750201498
H -5.629535687697384 7.399360131223263 -6.814247831479004
H -5.625332926156414 8.80512909793077 -7.4103444693134515
O -4.497358854092616 -4.1778494572519 -16.001233558698924
H -4.5557320788173605 -4.112290074904779 -15.036214444421125
H -5.303745798283551 -4.652640241677915 -16.25278027714807
O -10.335448512459163 15.838166261536344 -9.4231812569614
H -10.535032070008489 16.72217357741542 -9.080158187870957
H -9.400022657470206 15.708548193195503 -9.206064766390622
O -7.358359521036968 -18.73895116786189 0.48627746293962115
H -7.569100208411997 -19.454977971717348 1.104226761624591
H -8.160106749658201 -18.194833603295443 0.4763074264080789
O 2.54904708281224 4.430794185700336 13.543154482500807
H 1.9572039713367542 4.84217639174772 14.19080698874671
H 2.3039449724644245 4.848318661724134 12.703773632276011
O -6.653752194447465 14.904713276604364 1.1369119111626964
H -6.840820075709014 15.813942874234659 1.4148948305900722
H -5.690291463783874 14.831225505589446 1.209746739922283
O -9.95852990146127 8.61296377186444 15.016716532459094
H -10.140246406673656 9.023261871306898 14.157878981913415
H -9.590481880348282 9.33502285162544 15.547878733476361
O -3.4819014527666687 -12.056634713733056 1.0689651395030668
H -4.406958732803597 -12.305103930163716 0.9223382864473724
H -3.4679141632016055 -11.101137401488604 0.9083687935787319
O 7.4645919021244005 -15.814564953526087 5.632366099792133
H 7.321801027243308 -16.489724045837857 4.952117378353097
H 7.238028472547267 -14.98352554412368 5.188514258860567
O -6.847504899782769 0.18272301919577538 7.240392744574338
H -6.910045806857488 -0.6042240413340627 7.802327185381912
H -5.899176960684741 0.38072352024530076 7.219611363238524
O 7.162632871963544 12.52627416374238 2.858029169352864
H 7.867072937493748 13.099937115404904 3.195138007661274
H 6.936832299716594 11.963875550549973 3.614126944612258
O -16.25841435316595 -9.316852045098493 -1.5621893314050777
H -16.65410043879366 -10.030865830718572 -2.084285292397984
H -15.74957378491116 -8.807164310873599 -2.2104652248168533