194

C -5.0710522388059704 1.0783507462686561 0.47044029850746183
C -3.8153522388059704 0.1782507462686569 0.19534029850746193
C -4.11845223880597 -1.3219492537313435 0.5608402985074619
C -2.96945223880597 -2.3874492537313436 0.7034402985074619
C -2.52015223880597 0.7359507462686565 0.7384402985074618
C -2.20305223880597 0.7852507462686571 2.097440298507462
C -1.5755522388059702 1.205650746268656 -0.18965970149253808
C -0.9533522388059701 1.2695507462686564 2.508640298507462
H -2.91125223880597 0.4298507462686567 2.840840298507462
C -0.32655223880597006 1.6562507462686575 0.21554029850746192
H -1.7850522388059702 1.178550746268657 -1.2573597014925382
C 0.004447761194029898 1.6956507462686563 1.569740298507462
H -0.7158522388059702 1.2676507462686573 3.5705402985074617
H 0.3943477611940298 1.9193507462686572 -0.5551597014925382
C -1.76045223880597 -2.1592492537313435 -0.1734597014925381
C -0.5287522388059701 -1.936549253731343 0.464840298507462
C -1.8068522388059702 -2.121249253731343 -1.5681597014925381
C 0.6114477611940299 -1.614449253731343 -0.2582597014925381
H -0.4544522388059702 -1.954049253731343 1.5506402985074619
C -0.6479522388059701 -1.8270492537313432 -2.2998597014925384
H -2.74345223880597 -2.290549253731343 -2.092259701492538
C 0.5698477611940298 -1.5506492537313434 -1.6506597014925382
H 1.5072477611940298 -1.351949253731343 0.2991402985074618
H -0.7173522388059701 -1.7640492537313435 -3.3840597014925375
C 1.7791477611940298 -1.082849253731343 -2.4255597014925376
H 1.4739477611940297 -0.9102492537313429 -3.464259701492538
H 2.1252477611940295 -0.1337492537313434 -2.0010597014925384
C 1.3965477611940298 2.0964507462686566 1.997440298507462
H 1.51704776119403 1.8448507462686567 3.057640298507462
H 2.1256477611940294 1.5207507462686571 1.4165402985074618
C 3.94864776119403 -1.4275492537313434 -3.522959701492538
H 4.81734776119403 -2.087049253731343 -3.615159701492538
H 3.4305477611940303 -1.3641492537313429 -4.484459701492538
H 4.26984776119403 -0.441449253731343 -3.176459701492538
C 2.60904776119403 -3.4296492537313434 -2.8992597014925376
H 1.9825477611940296 -3.869549253731343 -2.119359701492538
H 2.06294776119403 -3.373349253731343 -3.845759701492538
H 3.5215477611940305 -4.019849253731343 -3.0234597014925377
C 3.7281477611940304 -2.060049253731343 -1.156659701492538
H 3.9048477611940298 -1.032549253731343 -0.8295597014925382
H 3.12924776119403 -2.623249253731343 -0.4404597014925382
H 4.68244776119403 -2.5769492537313434 -1.3005597014925383
C 3.1110477611940297 3.755250746268656 2.588740298507462
H 3.40124776119403 4.809350746268656 2.534540298507462
H 2.9823477611940303 3.461750746268656 3.634840298507462
H 3.86514776119403 3.1392507462686563 2.091540298507462
C 1.99744776119403 3.9574507462686572 0.40494029850746194
H 2.67914776119403 3.230350746268657 -0.04295970149253803
H 1.03214776119403 3.981150746268657 -0.10175970149253821
H 2.4399477611940297 4.958250746268657 0.368240298507462
C 0.7418477611940297 4.4992507462686575 2.475440298507462
H -0.18475223880597014 4.424250746268656 1.901240298507462
H 0.57844776119403 4.189650746268656 3.511940298507462
H 1.1210477611940297 5.524350746268658 2.4432402985074617
N 3.00114776119403 -2.025349253731343 -2.490159701492538
N 1.7831477611940298 3.586450746268657 1.862540298507462
C -3.55075223880597 -3.8435492537313434 0.6444402985074619
H -2.62515223880597 -2.2736492537313433 1.7424402985074618
H -4.67195223880597 -1.3478492537313436 1.5102402985074619
H -4.83415223880597 -1.6757492537313432 -0.1945597014925382
H -3.7169522388059697 0.17335074626865676 -0.900559701492538
H -3.9132522388059705 -4.043149253731343 -0.34225970149253815
H -4.35435223880597 -3.9354492537313432 1.3449402985074619
H -2.78115223880597 -4.545049253731343 0.8904402985074619
H -5.24235223880597 1.138950746268657 1.5249402985074618
H -5.92805223880597 0.6501507462686567 -0.006059701492538094
H -4.89895223880597 2.059650746268657 0.08004029850746197
C -0.4841022857346635 -5.139142442906864 -0.4626090208167193
O 0.02415518291946306 -4.962962246740381 0.6339357263942822
O -0.2164909106698092 -6.070315623446093 -1.2306794107422485
O -1.3447260622087112 -4.413514173640683 -0.9739198016626909
O -1.020156346541825 -9.333850785922134 5.3290107291499815
H -0.5622820357645812 -9.136119076019378 4.498215541796807
H -1.4990214680953025 -10.155366910101883 5.142566642699756
O -0.17496529452591836 8.154760540137596 -1.9933085967900952
H -1.0241018830985595 8.071713328539559 -2.4526968546864074
H -0.16108360554303575 7.39786403230523 -1.3884309897966263
O 3.2332736620755305 -3.3229635588660305 4.71133520662896
H 3.1180933588289785 -3.2867910236228077 3.749881930417312
H 4.110982826779953 -2.938898199779374 4.856532887201008
O 4.8254667946360765 2.1278287777182032 -6.806794624238097
H 4.841974424659325 1.9496572782209094 -5.854455518762584
H 5.760037292696778 2.227932845501959 -7.042419546662946
O -3.1649429312546404 -6.634993987531292 4.896943520602351
H -2.8404776218250176 -6.244248089721565 5.722175162762061
H -2.4691188000423994 -6.4338188630168265 4.253267132966981
O -3.744168902089187 -0.8739495763625271 -8.726438917866123
H -2.9918729127003387 -0.8175606502443582 -9.334582313999546
H -3.501510710978443 -1.5894194302559366 -8.119659027991215
O 0.4394682172861697 -4.8754109151982234 -6.154705590895942
H 0.6811244483326635 -5.791487140601167 -6.3581115203766245
H -0.05479785604806242 -4.584768763365976 -6.935852268946281
O -0.6127836118484673 2.8909476709691377 11.680687306778907
H -0.4885668849277236 2.0747957777232324 11.173308110512227
H -0.9303018908571081 3.5287896156985927 11.023951636711308
O -2.428028627083923 -3.4252495183731275 -8.214236881146665
H -3.3015586898856197 -3.821808381474721 -8.077658499338868
H -1.9524126625991405 -3.6179029369517854 -7.392266042894379
O 1.024566599830869 -2.3142333652440894 10.097542210707173
H 0.29319133121760643 -2.461037592757396 9.479071441676737
H 0.765730687959586 -2.810965118870067 10.888252954257192
O 8.348867367896 0.6669765432167115 -1.7904638451318813
H 8.0721006772826 1.507614915237523 -2.1850455012603796
H 8.621109103552065 0.1303130809425047 -2.549962831258153
O -8.39380197593757 -2.466641516295933 -0.8607668105491492
H -7.589637081778472 -2.2233630552462103 -1.3435729520711512
H -8.487832730242175 -3.4167449927779048 -1.0263673706984977
O -6.4898947111517415 -0.8541464665886687 3.6784369780868227
H -6.774939078218408 -1.531299601392818 3.0466294933824405
H -7.042067919742486 -1.0145126917837266 4.458404519611013
O 0.1395435990100714 5.5578934902946715 6.930397705121972
H -0.14115552408264054 5.5940470905430155 6.003646240928864
H -0.139174017680198 4.677916283267385 7.225217225437287
O 9.147052197037706 -8.289778674450524 1.794734088921655
H 9.35605427372684 -8.730479370040827 2.632032354622625
H 8.40679125363238 -7.705099389458275 2.016377527059598
O 8.930166148923965 3.853986084017132 0.8630036501231735
H 8.312423166402235 3.505451112007268 1.5232190223550262
H 8.370438531247979 4.38321757301081 0.2751422979589928
O 0.6697727145586567 -6.939670123505931 6.670897583613693
H 0.5099582744226743 -6.989233467430489 5.716450006968941
H -0.17473296198151234 -6.633211847751709 7.034016616181774
O 8.388392456920446 -4.055780469210784 0.9931406031170158
H 8.074640730155789 -3.8241188180397874 0.10608925723622331
H 7.890649507971916 -3.4658271571714443 1.5789468771409738
O 6.927645937973405 -0.46301365132916156 -5.46477614058812
H 7.095239652458144 0.22915643474744754 -4.80767624277508
H 7.63597264708576 -0.34460132677778077 -6.1153249387980635
O -6.898709114179027 4.231606522490369 -0.16787975876985795
H -6.689475947697581 4.173488912673076 0.7764777912996447
H -7.367755997119688 5.075316825607232 -0.2521999243182085
C 14.249418541342296 4.916987762390808 3.97206527868683
O 14.784106415341373 5.965798013790976 3.7554453551888782
O 13.714730667343217 3.8681775109906367 4.188685202184783
O -2.663014439685509 18.856739322895013 -10.490530063779232
H -3.2210949928083608 18.38467144926357 -9.854396920631368
H -2.940937064301743 19.78107492307069 -10.40494585218449
O 6.039383175857278 7.7445340770843245 7.673053342750597
H 6.240249672846806 7.935371195517945 8.601601242169421
H 6.4887783956890415 8.451662716876625 7.186252595547131
O 10.65260899853288 -0.04860163286511643 -6.979538014007105
H 10.220483409909706 -0.16423622051079567 -6.119966333053684
H 11.597363058543547 -0.025633805429562173 -6.765355406645419
O 14.628537536197966 3.9411236796412368 12.839824447545848
H 15.162396162506873 3.164876348805011 13.06654543330853
H 13.965546657567987 3.5970483456450584 12.222558537512851
O 5.710424620289018 -3.2341664356090125 -12.352360757068055
H 5.958161063666649 -3.169786013417318 -11.417775730031444
H 4.829838629690251 -2.8314734961709878 -12.389356080934046
O 14.493233187842149 3.947438303049413 -7.007816166473953
H 13.950738273318311 3.1600556832711995 -6.850668991230572
H 14.756875893253943 4.231116779022103 -6.119570147370596
O -5.685474562470308 -4.828023387112971 4.672285021589652
H -6.306020968474842 -5.4009919105043895 5.147255111276902
H -6.255746856752043 -4.182309906380776 4.228657299873166
O -3.8178305298421797 -8.711491393144145 18.085616178865042
H -3.8227043018885842 -9.261582110985376 17.287904573464346
H -4.744744947147631 -8.700283933251194 18.367867839859347
O -17.502349515439995 -4.813278236210115 -3.127828673406056
H -18.159239645151434 -4.808732258472055 -2.4154790061259344
H -16.93628556855445 -5.571621117593057 -2.9193829332428765
O 14.00672968987001 -7.684897865368774 -9.211652385814153
H 13.409210203210051 -7.608981923494378 -9.97071403662451
H 13.970783967928096 -8.624758596348299 -8.97856086787171
O -0.9712076776960665 8.238039133823806 10.896275741112166
H -1.126746449653068 7.873371960845047 11.780466275029935
H -0.0742302107021312 8.601070718724408 10.947280019067076
O -3.95625827879911 14.334398259931724 -7.423974122647808
H -4.377190856900161 13.47774415360059 -7.591087448565313
H -3.9430319459880834 14.40413197482864 -6.457576576382791
O 16.368010844748458 -16.917538411423905 2.147887311019379
H 15.454710210958083 -16.931492404890733 2.471390935859083
H 16.56926127740192 -17.849466346773937 1.9747673209228713
O 6.022483864332124 10.32365014766654 9.858263904752953
H 5.95943009695778 10.748724124047627 10.726770493054664
H 5.9044807742644 11.053176010314788 9.231503000769784
O -22.416219085679543 7.168993531432332 5.774681387956279
H -22.127529454187574 7.029837820675243 4.860208128788619
H -21.58943003094867 7.290441578211301 6.2652241233125405
O -3.1939211089306756 -0.3512380803472894 5.625961065526385
H -2.426702661600718 -0.940858412350255 5.6778366384419865
H -3.2094526381281323 0.08914035121052244 6.488971814543724
O 10.527508350906903 4.800182229012684 10.963492903260075
H 10.214614879861307 5.080339033943345 10.090236241488702
H 11.492483364430182 4.856410239352447 10.89549600311765
O -12.008064713768382 5.483012914421931 -1.1606389160906607
H -11.88912860232043 5.088386595530828 -2.03761760838147
H -12.672344221442405 6.173968573646023 -1.3030290736527559
O 0.012714233510532136 15.110015620122635 6.963894345687188
H 0.5156925437758155 15.40545097657702 7.737650202827766
H 0.44372514439587274 14.281001647393786 6.707131085040105
O 20.032499611909873 6.524485315947264 -4.221561576493977
H 20.85477238471349 6.018879374654372 -4.1367236360711415
H 19.56167110891146 6.346275880673833 -3.393597892360551