194

C -5.0710522388059704 1.0783507462686561 0.47044029850746183
C -3.8153522388059704 0.1782507462686569 0.19534029850746193
C -4.11845223880597 -1.3219492537313435 0.5608402985074619
C -2.96945223880597 -2.3874492537313436 0.7034402985074619
C -2.52015223880597 0.7359507462686565 0.7384402985074618
C -2.20305223880597 0.7852507462686571 2.097440298507462
C -1.5755522388059702 1.205650746268656 -0.18965970149253808
C -0.9533522388059701 1.2695507462686564 2.508640298507462
H -2.91125223880597 0.4298507462686567 2.840840298507462
C -0.32655223880597006 1.6562507462686575 0.21554029850746192
H -1.7850522388059702 1.178550746268657 -1.2573597014925382
C 0.004447761194029898 1.6956507462686563 1.569740298507462
H -0.7158522388059702 1.2676507462686573 3.5705402985074617
H 0.3943477611940298 1.9193507462686572 -0.5551597014925382
C -1.76045223880597 -2.1592492537313435 -0.1734597014925381
C -0.5287522388059701 -1.936549253731343 0.464840298507462
C -1.8068522388059702 -2.121249253731343 -1.5681597014925381
C 0.6114477611940299 -1.614449253731343 -0.2582597014925381
H -0.4544522388059702 -1.954049253731343 1.5506402985074619
C -0.6479522388059701 -1.8270492537313432 -2.2998597014925384
H -2.74345223880597 -2.290549253731343 -2.092259701492538
C 0.5698477611940298 -1.5506492537313434 -1.6506597014925382
H 1.5072477611940298 -1.351949253731343 0.2991402985074618
H -0.7173522388059701 -1.7640492537313435 -3.3840597014925375
C 1.7791477611940298 -1.082849253731343 -2.4255597014925376
H 1.4739477611940297 -0.9102492537313429 -3.464259701492538
H 2.1252477611940295 -0.1337492537313434 -2.0010597014925384
C 1.3965477611940298 2.0964507462686566 1.997440298507462
H 1.51704776119403 1.8448507462686567 3.057640298507462
H 2.1256477611940294 1.5207507462686571 1.4165402985074618
C 3.94864776119403 -1.4275492537313434 -3.522959701492538
H 4.81734776119403 -2.087049253731343 -3.615159701492538
H 3.4305477611940303 -1.3641492537313429 -4.484459701492538
H 4.26984776119403 -0.441449253731343 -3.176459701492538
C 2.60904776119403 -3.4296492537313434 -2.8992597014925376
H 1.9825477611940296 -3.869549253731343 -2.119359701492538
H 2.06294776119403 -3.373349253731343 -3.845759701492538
H 3.5215477611940305 -4.019849253731343 -3.0234597014925377
C 3.7281477611940304 -2.060049253731343 -1.156659701492538
H 3.9048477611940298 -1.032549253731343 -0.8295597014925382
H 3.12924776119403 -2.623249253731343 -0.4404597014925382
H 4.68244776119403 -2.5769492537313434 -1.3005597014925383
C 3.1110477611940297 3.755250746268656 2.588740298507462
H 3.40124776119403 4.809350746268656 2.534540298507462
H 2.9823477611940303 3.461750746268656 3.634840298507462
H 3.86514776119403 3.1392507462686563 2.091540298507462
C 1.99744776119403 3.9574507462686572 0.40494029850746194
H 2.67914776119403 3.230350746268657 -0.04295970149253803
H 1.03214776119403 3.981150746268657 -0.10175970149253821
H 2.4399477611940297 4.958250746268657 0.368240298507462
C 0.7418477611940297 4.4992507462686575 2.475440298507462
H -0.18475223880597014 4.424250746268656 1.901240298507462
H 0.57844776119403 4.189650746268656 3.511940298507462
H 1.1210477611940297 5.524350746268658 2.4432402985074617
N 3.00114776119403 -2.025349253731343 -2.490159701492538
N 1.7831477611940298 3.586450746268657 1.862540298507462
C -3.55075223880597 -3.8435492537313434 0.6444402985074619
H -2.62515223880597 -2.2736492537313433 1.7424402985074618
H -4.67195223880597 -1.3478492537313436 1.5102402985074619
H -4.83415223880597 -1.6757492537313432 -0.1945597014925382
H -3.7169522388059697 0.17335074626865676 -0.900559701492538
H -3.9132522388059705 -4.043149253731343 -0.34225970149253815
H -4.35435223880597 -3.9354492537313432 1.3449402985074619
H -2.78115223880597 -4.545049253731343 0.8904402985074619
H -5.24235223880597 1.138950746268657 1.5249402985074618
H -5.92805223880597 0.6501507462686567 -0.006059701492538094
H -4.89895223880597 2.059650746268657 0.08004029850746197
C -1.0264216366165588 2.55861024485315 -3.342319466553001
O -0.15908111000493874 2.8849791936299085 -2.54671955530902
O -2.0047665113468307 3.248039766945192 -3.652415748789577
O -1.0600312978964659 1.488380560366826 -3.9604838439745356
O -6.2365075510240775 -1.1582837186138244 -5.382561708256727
H -7.178737402857122 -0.934452385223703 -5.349853950652708
H -5.7894172560367165 -0.3089946805957826 -5.249218758197477
O 8.52170516779707 1.0949765688255817 2.0961994569954747
H 8.437577939952039 1.2529207869251304 1.1438635969103712
H 7.6111615971539655 1.1474431030634076 2.4234907844784614
O -1.5986337840790559 10.256676784123783 -0.95010675912151
H -1.5268128495746378 10.752972427790535 -0.12095071569885185
H -1.365712486337231 9.349690856822207 -0.7009358518406601
O 5.01483179606538 -9.880666908097876 -0.7561448219106831
H 4.7532582672843 -10.796614366861967 -0.9338718562206697
H 5.886794539320428 -9.962522704953692 -0.3414852661348273
O -7.565957559162058 2.549237160755127 -4.525040065512653
H -7.604633714014638 2.5972969186270736 -5.492077692298245
H -8.214956451081761 1.866274313042463 -4.2984917677234025
O -8.850498636101424 2.765011546581526 -7.9030679605843845
H -9.076854600898532 3.678270987998158 -8.134773650553692
H -7.9437977136520335 2.6589481813535127 -8.228038642471123
O -1.0254817443017887 5.586901164765756 7.086515884684606
H -1.127554141303626 5.7441110569303 8.03721753740007
H -0.6258656969249263 6.405264109037084 6.755530914599176
O 2.211154952662896 4.182355691461677 -8.53435016831336
H 3.0309172249607075 4.658767976606761 -8.73432143719959
H 2.4695561685227227 3.248936270558948 -8.564664201759596
O 10.124796285759732 -9.095975417275824 1.8619889536436354
H 9.680638096669107 -8.942410418467423 1.014576037111965
H 10.917225338176902 -9.599853447135759 1.6229804345283112
O 7.82094827501972 -4.5576251932582945 2.048309586111055
H 7.752926199552199 -5.502834789505583 1.8460247045426823
H 7.402301137005593 -4.125044277232097 1.2889873427765703
O 7.455021889952137 0.7830714484915111 -3.1005052077905453
H 7.066442627739355 0.31212291706575357 -3.8529552025583653
H 8.300005131126632 0.3322018103958142 -2.953257675119531
O 7.254118968645749 -2.792682833271534 -0.5893262238598092
H 6.828555795664869 -2.0716157848902244 -1.0771024578453459
H 7.990942127822004 -3.05829991144682 -1.159853299626722
O -3.376344466317578 7.915030157755189 -3.1428798571644916
H -3.310507299101698 8.849541577100974 -2.8952486163540505
H -3.671111422208936 7.477693131477265 -2.3299772114184454
O -1.821569376062481 -5.982101302486885 -4.654564838050974
H -2.3022496181384247 -5.623232848980358 -3.8935607021518006
H -2.1603255550625695 -6.885895980806511 -4.74036329334234
O 5.292607721252317 8.09564280668652 -2.0583964322087196
H 5.888319001973193 8.49078551515564 -2.712581166718462
H 5.785816833224574 8.155447934006553 -1.2264528866999074
O 4.965993715079437 4.420130148787351 -10.047669416646682
H 4.716778313842681 3.537830247041905 -9.73397223134471
H 5.3293107484485125 4.854194887085247 -9.26118961364455
O -4.359644795882254 5.546950900335598 -9.93926042417882
H -4.782718129065891 4.989604395870276 -10.609589586314241
H -4.970075816170613 5.51306454424333 -9.187470806905143
O -5.165753555323038 -6.331201703407458 6.767535741544506
H -5.266938501026747 -6.218291213261706 5.8104672043550405
H -6.02297337731544 -6.680664370695617 7.053913054289705
O 6.349466266020869 2.8385427467886144 -3.930590883649413
H 7.079329527215791 3.021201304073859 -4.541248585073366
H 5.666787736926864 3.4778798209800454 -4.183889276416493
O -3.837475129637343 7.761750701973348 3.645634213660072
H -2.934001573562743 7.497760177932538 3.4153910952166004
H -4.381633767480382 7.016505170565421 3.3498937546807093
C 2.6652154878918095 -16.304760276049883 -9.330134979926457
O 2.6721994757544234 -16.284862514280707 -10.52695307817285
O 2.658231500029194 -16.324658037819066 -8.133316881680065
O 1.6312758806252836 6.758844722794255 -1.9029298019346088
H 1.2444608761778198 7.064576690810092 -1.0687418896705474
H 2.5865380024348577 6.7904405180109855 -1.7434370790269744
O 14.721474096895895 17.75999441717979 -5.625136756809591
H 15.13662824918263 18.2493447511249 -4.899085355456426
H 14.050159757276226 18.37049053958188 -5.965127177634978
O -6.862037620505841 -12.28568383396556 -2.5792926504329765
H -6.112946980434768 -11.768856331383585 -2.912038653313236
H -6.48915030707892 -13.167028464595 -2.4271458862678648
O -11.43343988332413 9.593631612849869 8.969980103730357
H -12.394338003678785 9.683122529938888 9.057350207069288
H -11.144468407014218 9.30436733837262 9.848492260555988
O -6.437371101279514 13.717228563452384 -3.5316490943649193
H -5.785020061591266 13.517645814893974 -2.843483268131497
H -6.457790087908659 14.685568271069618 -3.5610296991375643
O -4.629546741671108 5.123636238448996 -3.096716564262719
H -4.6365882377749355 4.857288113118804 -4.028369101620781
H -4.992095947992078 4.355204181647261 -2.6308494250744205
O 3.0707770642750503 -5.506554200087076 9.318029506267411
H 2.1773210964991816 -5.223984971234168 9.071334509457262
H 2.9602549404478875 -5.886388192476961 10.202604513075709
O -3.036055818739894 10.96805903329435 12.641751893005585
H -3.1392434257759954 11.035024170052536 13.602915430138118
H -2.0926667251160507 10.783288439105913 12.519937321402528
O -12.063515180497408 -15.843486712252528 0.46582017835636336
H -11.301898715302809 -16.307803123661635 0.08724655679689164
H -12.631076047473194 -15.66280755851983 -0.29850413107264373
O 5.186246064126365 2.0298997714575804 13.184588863397098
H 5.532268778181203 1.5699877812010912 12.40502706374524
H 4.236774220697177 2.1085065095558244 13.007709968215298
O 1.601655590174155 -5.071305705674867 1.7845548352547793
H 1.6020567742907212 -5.637336466271698 0.9980585707948153
H 1.2330478282970154 -4.232519289741689 1.469074866588143
O 1.9819664028102393 12.890247102520117 2.0318342199634074
H 1.7990875855483317 12.428420951138062 2.863843415223006
H 1.573377057064207 12.32749203905216 1.3570576425809318
O 13.77474838893532 -6.342993006133447 2.8930395830297715
H 13.681240722719515 -5.882437684983039 3.74045475248269
H 12.877407201118904 -6.648901181235836 2.6926376734736204
O 16.16806509368399 -8.27154414413903 -7.1718142810078245
H 16.732543614457867 -8.06276112525908 -7.931248944104203
H 15.269145884944729 -8.116389804680512 -7.498667966021127
O 5.195974115657393 16.57113178282309 18.40275638527301
H 5.073883393328384 16.80857617132192 17.471262222762263
H 5.117038695387427 17.415371374155058 18.871788000576753
O -3.9766470114009733 -1.5694999222332533 12.73818694676771
H -3.1861074738281445 -1.0205701673352008 12.625533848178708
H -3.784233217938726 -2.3659427126996144 12.22086909679574
O 3.5006964212790734 -11.368926835539957 -4.352968947453499
H 3.0711909313268078 -11.264829472957562 -3.4906139566844683
H 4.079288138812135 -10.59463422022095 -4.421266198969199
O 7.827880298270221 -9.131267481239943 -18.863748364839388
H 8.3094145542557 -8.442066237364877 -19.345509470215873
H 8.080783099688158 -9.951450263663785 -19.313528667598902
O -9.605768525600045 16.76862704436698 0.4021478536066301
H -9.887901598785405 15.954016178512024 -0.04031957247808293
H -9.70329090337166 16.568566710228318 1.345242330760481
O 12.844824384893457 12.780740931088095 -2.241466615923658
H 12.07168471695481 12.716260380615541 -2.8220393240063553
H 12.475523747434327 12.696031933031797 -1.3496127214316411