194

C -5.0710522388059704 1.0783507462686561 0.47044029850746183
C -3.8153522388059704 0.1782507462686569 0.19534029850746193
C -4.11845223880597 -1.3219492537313435 0.5608402985074619
C -2.96945223880597 -2.3874492537313436 0.7034402985074619
C -2.52015223880597 0.7359507462686565 0.7384402985074618
C -2.20305223880597 0.7852507462686571 2.097440298507462
C -1.5755522388059702 1.205650746268656 -0.18965970149253808
C -0.9533522388059701 1.2695507462686564 2.508640298507462
H -2.91125223880597 0.4298507462686567 2.840840298507462
C -0.32655223880597006 1.6562507462686575 0.21554029850746192
H -1.7850522388059702 1.178550746268657 -1.2573597014925382
C 0.004447761194029898 1.6956507462686563 1.569740298507462
H -0.7158522388059702 1.2676507462686573 3.5705402985074617
H 0.3943477611940298 1.9193507462686572 -0.5551597014925382
C -1.76045223880597 -2.1592492537313435 -0.1734597014925381
C -0.5287522388059701 -1.936549253731343 0.464840298507462
C -1.8068522388059702 -2.121249253731343 -1.5681597014925381
C 0.6114477611940299 -1.614449253731343 -0.2582597014925381
H -0.4544522388059702 -1.954049253731343 1.5506402985074619
C -0.6479522388059701 -1.8270492537313432 -2.2998597014925384
H -2.74345223880597 -2.290549253731343 -2.092259701492538
C 0.5698477611940298 -1.5506492537313434 -1.6506597014925382
H 1.5072477611940298 -1.351949253731343 0.2991402985074618
H -0.7173522388059701 -1.7640492537313435 -3.3840597014925375
C 1.7791477611940298 -1.082849253731343 -2.4255597014925376
H 1.4739477611940297 -0.9102492537313429 -3.464259701492538
H 2.1252477611940295 -0.1337492537313434 -2.0010597014925384
C 1.3965477611940298 2.0964507462686566 1.997440298507462
H 1.51704776119403 1.8448507462686567 3.057640298507462
H 2.1256477611940294 1.5207507462686571 1.4165402985074618
C 3.94864776119403 -1.4275492537313434 -3.522959701492538
H 4.81734776119403 -2.087049253731343 -3.615159701492538
H 3.4305477611940303 -1.3641492537313429 -4.484459701492538
H 4.26984776119403 -0.441449253731343 -3.176459701492538
C 2.60904776119403 -3.4296492537313434 -2.8992597014925376
H 1.9825477611940296 -3.869549253731343 -2.119359701492538
H 2.06294776119403 -3.373349253731343 -3.845759701492538
H 3.5215477611940305 -4.019849253731343 -3.0234597014925377
C 3.7281477611940304 -2.060049253731343 -1.156659701492538
H 3.9048477611940298 -1.032549253731343 -0.8295597014925382
H 3.12924776119403 -2.623249253731343 -0.4404597014925382
H 4.68244776119403 -2.5769492537313434 -1.3005597014925383
C 3.1110477611940297 3.755250746268656 2.588740298507462
H 3.40124776119403 4.809350746268656 2.534540298507462
H 2.9823477611940303 3.461750746268656 3.634840298507462
H 3.86514776119403 3.1392507462686563 2.091540298507462
C 1.99744776119403 3.9574507462686572 0.40494029850746194
H 2.67914776119403 3.230350746268657 -0.04295970149253803
H 1.03214776119403 3.981150746268657 -0.10175970149253821
H 2.4399477611940297 4.958250746268657 0.368240298507462
C 0.7418477611940297 4.4992507462686575 2.475440298507462
H -0.18475223880597014 4.424250746268656 1.901240298507462
H 0.57844776119403 4.189650746268656 3.511940298507462
H 1.1210477611940297 5.524350746268658 2.4432402985074617
N 3.00114776119403 -2.025349253731343 -2.490159701492538
N 1.7831477611940298 3.586450746268657 1.862540298507462
C -3.55075223880597 -3.8435492537313434 0.6444402985074619
H -2.62515223880597 -2.2736492537313433 1.7424402985074618
H -4.67195223880597 -1.3478492537313436 1.5102402985074619
H -4.83415223880597 -1.6757492537313432 -0.1945597014925382
H -3.7169522388059697 0.17335074626865676 -0.900559701492538
H -3.9132522388059705 -4.043149253731343 -0.34225970149253815
H -4.35435223880597 -3.9354492537313432 1.3449402985074619
H -2.78115223880597 -4.545049253731343 0.8904402985074619
H -5.24235223880597 1.138950746268657 1.5249402985074618
H -5.92805223880597 0.6501507462686567 -0.006059701492538094
H -4.89895223880597 2.059650746268657 0.08004029850746197
C 2.452070653393031 -2.351278511339816 3.2423835446414326
O 2.7362458741135205 -3.310680327000525 2.541977877448914
O 1.358004321611807 -1.7754725300165983 3.2522728133293746
O 3.2145913261820622 -1.8077119344475723 4.049691406894126
O -1.2306985342425212 7.655908225040308 5.193465302751581
H -1.2729591528430024 8.545066938020963 4.810610003524716
H -1.996506259927087 7.61959969890007 5.786071548509551
O -7.716780084357753 -3.220002197197215 4.7261946422411665
H -7.977407981464252 -3.64614044329152 5.556523884991002
H -6.844968495022764 -3.596513908278351 4.533463149173853
O -4.719004471138088 5.173255861163017 -0.2198455813345701
H -3.8049846399406793 5.238787585884291 0.09517933535126488
H -5.245691626198672 5.149973823542137 0.5931861103714824
O 2.9556279298646095 8.905439307785533 7.509827278896877
H 3.1605362879929237 8.890065780644132 8.456792735675736
H 2.0147744299703856 9.135048404451258 7.477635684261959
O 5.3772283564426235 1.4864965129640582 7.131593660344054
H 5.999042475912523 0.752445815525812 7.247714852717797
H 5.550552696197331 2.062475354524121 7.891310049283851
O -7.919069694165091 8.093183814460007 -0.8058261232815758
H -8.189759283417631 8.430310298866372 0.06137641170209118
H -7.540007198002699 7.222999765126232 -0.6107536019255151
O -0.3643503576325502 2.845506095491358 8.318008697642664
H 0.3702014370003397 3.076335095766928 8.906327480730017
H 0.052409731554019956 2.7541456910595308 7.4479936122198565
O -5.1965062069201124 -8.193888071283453 -0.8090280176631279
H -5.67012486628629 -8.763108930298504 -0.18401574893366335
H -4.351766480843667 -8.648495045735395 -0.9458097352570451
O 8.164588093063713 7.63693996406313 -3.5680882938265617
H 8.060225985673675 8.371893880923157 -4.190919448741933
H 9.005150890059841 7.824179334038588 -3.12383887408891
O -3.1588637128152097 4.8519821263798795 7.571460073138289
H -3.7283990878997 4.258984789286382 8.084247525819602
H -3.779556038164339 5.461575999915084 7.144730309820762
O -9.948753936895788 -0.005200663291556218 5.999132676716389
H -10.126253206725579 0.0490139298142509 6.950196367540649
H -9.789086842433 0.9142032893454046 5.738048906402444
O -2.908703547393295 6.981235582186088 -4.2900184423898455
H -3.0166305198946715 7.9302445587737 -4.453423117545788
H -2.5732955121239103 6.63561170323868 -5.1308558395589285
O 3.9976110307845167 -0.17914636641284387 -10.858137537162108
H 3.6874807259053233 0.655583015240258 -10.476020525893869
H 3.7764851964975907 -0.840849099036669 -10.185668353222002
O 9.762501005256844 2.4353065138615997 5.412331086437105
H 9.373988763792948 3.18600802951359 5.886116723123681
H 9.388857090459108 1.6594293666624802 5.856590944728144
O -3.2497507904159937 10.73968123036742 -4.666122410909883
H -3.3321888695231014 10.806427298561829 -5.629302706801425
H -4.051448506112776 10.267889982398556 -4.394726509528635
O -2.4229970508871856 -4.923665776277431 -7.853223038868656
H -2.950919159103297 -4.474308052109004 -7.176212521751804
H -1.8222158277243095 -5.488799649535848 -7.344648981831869
O -2.3339755039834356 1.0646557373481662 10.506991862138658
H -3.0503515090488524 1.527122500828916 10.046668857127878
H -2.6916071004286914 0.9019092937968103 11.392754347591392
O 0.1847371027719893 -8.012246757876499 4.668582823198926
H 0.6071724325404322 -8.865708782064031 4.8477986772218
H -0.6613518942584349 -8.066767949380429 5.137755278785399
O -2.2592303251813624 -5.159093090626418 5.566214899134131
H -2.3842319049357332 -4.982383529060463 4.62169613658355
H -2.0478563157589154 -6.104097475232006 5.601565790450946
O 6.04778560862385 3.3462104285054224 0.8995868404967421
H 6.030893926440356 3.6508074861105193 -0.020142826563818828
H 6.962215920315361 3.5006386071170206 1.180533609494839
C 2.04623059796375 -8.227910302248574 10.397809019120746
O 2.7603828966533737 -8.479989619323899 9.470845821642463
O 1.3320782992741265 -7.975830985173248 11.32477221659903
O -20.465907707046718 8.55763229222747 1.1715101767870755
H -20.230863268068482 8.269646638123387 2.066376497326434
H -20.00928399791964 9.40640187247925 1.0712757904606147
O 5.433022308070439 16.442348196984337 5.097569275557971
H 5.413588968462197 16.6217782860489 4.145521721414821
H 5.347183525907808 15.478925898411777 5.155974090342362
O 6.2407098733535795 17.83750411105744 -6.486421112443075
H 5.812182934841161 17.164838004826603 -7.0367413186843315
H 6.4235356269056165 18.562485189849436 -7.10281313342625
O 13.02968386916184 0.1693684467273826 -1.213176580552628
H 12.575979789644943 -0.5615073612896571 -0.7671490944206987
H 13.796757048146825 -0.25096382279289875 -1.630167546380184
O -8.726842570846001 -9.92366841870257 3.1473219318376504
H -7.810133569905979 -9.958997344370353 3.459353711479894
H -8.87065878233178 -10.793172412131744 2.7445296193184117
O 6.462600063097777 14.293070864329806 -12.161553238587832
H 5.625032164353799 13.807863275100711 -12.206508407902241
H 6.240230404683859 15.098967553834541 -11.671610175403764
O -11.231787761152987 16.49965301377456 -0.9585817284397944
H -10.39449510552476 16.85620964050576 -1.2914116214258407
H -11.872962689813438 17.204412985403202 -1.135132110901175
O -12.80062062268149 9.54245217261627 -14.835488185119603
H -13.546812661686067 9.19385976103855 -15.346025283102332
H -12.975460122930656 9.242426572549837 -13.930845862012069
O 5.509294951849314 -9.746734212561998 -8.01914788531252
H 6.099052924562945 -10.031591638657332 -7.304998645083946
H 6.0407078284158295 -9.861322072003938 -8.821289968355053
O 11.266548946002217 15.073701167740897 5.282679191120181
H 11.33313647644049 14.111745934973145 5.186889902361595
H 12.16479582622199 15.38956097936533 5.102826290459608
O 14.35717357866864 -15.07630273996825 5.599358356822325
H 14.386460494928272 -15.619061661991225 6.401556827277402
H 14.578805549332404 -14.18593728286565 5.9109519489871385
O 12.097786237466853 4.953156780922511 -9.67038352597611
H 11.96755749829861 4.120668989910028 -9.191873431819456
H 12.988412984979584 4.871867582517584 -10.043395599691657
O 5.23447092598894 -2.163448617388277 11.220100520414617
H 5.303523143015045 -1.8004453424284987 12.115883848341776
H 6.1365703343195666 -2.1006308826087414 10.871915894121756
O -0.16596406679512743 11.859059859725976 -1.8674974311307713
H -0.6993743601428468 12.022231000059115 -2.6598458360721096
H -0.8180360383699385 11.621737969990333 -1.191152542158553
O 1.6128414644625666 -5.0378084056191454 -15.98546695268636
H 2.34367263453257 -4.418336911332092 -16.13075365379791
H 1.883580980941543 -5.835615148193455 -16.464180290728766
O 2.4105008697403667 -9.491425608317755 1.754667194103205
H 2.451122784434058 -9.520783723232071 2.7223734088374587
H 3.1366807773004073 -10.067544237152648 1.4723340368837714
O 3.7658862602956695 -7.9587639632071845 -6.691991856125405
H 3.5605250872611545 -8.338780127940131 -5.824592374887635
H 4.020470471873386 -7.045233723013098 -6.492965918704456
O 1.795385556232108 -10.113206901180554 -8.250720879315026
H 1.1434305333513042 -10.11531227179327 -8.967601324337119
H 2.6051501859519655 -9.787637803292135 -8.671729134881094
O 9.844457288192228 16.559134213867953 -7.891504267546914
H 9.885491609535643 16.563553867391118 -6.92338030439208
H 10.616621584109025 17.07890628375766 -8.160876203304674
O 6.578464568268988 1.2938631238086642 -16.8473446065205
H 6.792433652775705 2.231561389239574 -16.96527064598262
H 5.652056142481524 1.2286067832176513 -17.123878479568024