194

C -5.0710522388059704 1.0783507462686561 0.47044029850746183
C -3.8153522388059704 0.1782507462686569 0.19534029850746193
C -4.11845223880597 -1.3219492537313435 0.5608402985074619
C -2.96945223880597 -2.3874492537313436 0.7034402985074619
C -2.52015223880597 0.7359507462686565 0.7384402985074618
C -2.20305223880597 0.7852507462686571 2.097440298507462
C -1.5755522388059702 1.205650746268656 -0.18965970149253808
C -0.9533522388059701 1.2695507462686564 2.508640298507462
H -2.91125223880597 0.4298507462686567 2.840840298507462
C -0.32655223880597006 1.6562507462686575 0.21554029850746192
H -1.7850522388059702 1.178550746268657 -1.2573597014925382
C 0.004447761194029898 1.6956507462686563 1.569740298507462
H -0.7158522388059702 1.2676507462686573 3.5705402985074617
H 0.3943477611940298 1.9193507462686572 -0.5551597014925382
C -1.76045223880597 -2.1592492537313435 -0.1734597014925381
C -0.5287522388059701 -1.936549253731343 0.464840298507462
C -1.8068522388059702 -2.121249253731343 -1.5681597014925381
C 0.6114477611940299 -1.614449253731343 -0.2582597014925381
H -0.4544522388059702 -1.954049253731343 1.5506402985074619
C -0.6479522388059701 -1.8270492537313432 -2.2998597014925384
H -2.74345223880597 -2.290549253731343 -2.092259701492538
C 0.5698477611940298 -1.5506492537313434 -1.6506597014925382
H 1.5072477611940298 -1.351949253731343 0.2991402985074618
H -0.7173522388059701 -1.7640492537313435 -3.3840597014925375
C 1.7791477611940298 -1.082849253731343 -2.4255597014925376
H 1.4739477611940297 -0.9102492537313429 -3.464259701492538
H 2.1252477611940295 -0.1337492537313434 -2.0010597014925384
C 1.3965477611940298 2.0964507462686566 1.997440298507462
H 1.51704776119403 1.8448507462686567 3.057640298507462
H 2.1256477611940294 1.5207507462686571 1.4165402985074618
C 3.94864776119403 -1.4275492537313434 -3.522959701492538
H 4.81734776119403 -2.087049253731343 -3.615159701492538
H 3.4305477611940303 -1.3641492537313429 -4.484459701492538
H 4.26984776119403 -0.441449253731343 -3.176459701492538
C 2.60904776119403 -3.4296492537313434 -2.8992597014925376
H 1.9825477611940296 -3.869549253731343 -2.119359701492538
H 2.06294776119403 -3.373349253731343 -3.845759701492538
H 3.5215477611940305 -4.019849253731343 -3.0234597014925377
C 3.7281477611940304 -2.060049253731343 -1.156659701492538
H 3.9048477611940298 -1.032549253731343 -0.8295597014925382
H 3.12924776119403 -2.623249253731343 -0.4404597014925382
H 4.68244776119403 -2.5769492537313434 -1.3005597014925383
C 3.1110477611940297 3.755250746268656 2.588740298507462
H 3.40124776119403 4.809350746268656 2.534540298507462
H 2.9823477611940303 3.461750746268656 3.634840298507462
H 3.86514776119403 3.1392507462686563 2.091540298507462
C 1.99744776119403 3.9574507462686572 0.40494029850746194
H 2.67914776119403 3.230350746268657 -0.04295970149253803
H 1.03214776119403 3.981150746268657 -0.10175970149253821
H 2.4399477611940297 4.958250746268657 0.368240298507462
C 0.7418477611940297 4.4992507462686575 2.475440298507462
H -0.18475223880597014 4.424250746268656 1.901240298507462
H 0.57844776119403 4.189650746268656 3.511940298507462
H 1.1210477611940297 5.524350746268658 2.4432402985074617
N 3.00114776119403 -2.025349253731343 -2.490159701492538
N 1.7831477611940298 3.586450746268657 1.862540298507462
C -3.55075223880597 -3.8435492537313434 0.6444402985074619
H -2.62515223880597 -2.2736492537313433 1.7424402985074618
H -4.67195223880597 -1.3478492537313436 1.5102402985074619
H -4.83415223880597 -1.6757492537313432 -0.1945597014925382
H -3.7169522388059697 0.17335074626865676 -0.900559701492538
H -3.9132522388059705 -4.043149253731343 -0.34225970149253815
H -4.35435223880597 -3.9354492537313432 1.3449402985074619
H -2.78115223880597 -4.545049253731343 0.8904402985074619
H -5.24235223880597 1.138950746268657 1.5249402985074618
H -5.92805223880597 0.6501507462686567 -0.006059701492538094
H -4.89895223880597 2.059650746268657 0.08004029850746197
C 0.12848146465684263 3.693511951250672 -2.913331281692719
O 0.5961823295977791 4.642000003846858 -2.30226515301613
O -0.4723843206141958 2.7421687231385667 -2.4009468220182884
O 0.1836663958949627 3.5382215091777964 -4.138683429593499
O -2.961519458662302 2.182390254151056 -3.1756259369131445
H -3.5006333104944267 2.168240005306366 -2.3705648323251984
H -3.329352833489707 2.916068301219135 -3.6907735622725646
O -4.120748472034294 0.3943550950042649 9.524292847201254
H -4.988261961169449 0.585589618098662 9.911354935561002
H -4.306123728293789 -0.28471057926810217 8.858359090216567
O 6.147327228053589 4.704135039219407 4.085914785454657
H 6.815457294283151 4.777464596469878 3.3879231325435843
H 5.438515558876999 5.2971987226924755 3.7946701644151437
O -3.913040199307585 -7.17123473654636 2.883570743932742
H -3.9826404025570774 -6.953441393422496 3.8252125167415745
H -4.157098553005021 -6.348104151428871 2.4342896469181503
O -6.969554638818912 1.240578915857525 -8.399720842981946
H -6.966611867344498 0.9995306670311153 -9.338259301828344
H -6.632036901533375 2.148849039790578 -8.390281389168969
O -2.0962925536287296 -3.655866038144782 -6.178520793095876
H -2.7583317817978568 -4.006454610309953 -6.7931418717552505
H -2.395918185477205 -3.965027533607846 -5.31041619412036
O -2.7447369767848238 2.6761455091577058 8.3280883536017
H -3.4019447452404936 2.087310675220478 7.927689996557572
H -3.054006088417742 3.564560620357346 8.095638034002187
O -1.4072921727811765 -3.7129820544697316 9.118697521407631
H -1.3927768374991139 -3.9143183551191845 8.170952642243178
H -2.3504227090627774 -3.69951905835749 9.340700862753794
O 4.6526891250237945 -2.6912086412012632 7.381829364869756
H 4.751746390557509 -2.5998622228145036 8.34141825960171
H 3.885799716879403 -2.1373327537948263 7.171914902943767
O -5.135376172638792 -2.03488424284122 -4.999805579590876
H -5.601965535573375 -2.65210881532337 -5.583154146419086
H -5.621479679851163 -2.0904606050352283 -4.163398625685593
O 9.32079395477369 -0.7295217371058094 -0.6137286895598368
H 9.885014782001207 0.04572852345714573 -0.4736956630276379
H 9.188031114849306 -1.0864026162767806 0.2773223812084811
O -0.38388355397756535 2.0708946840029876 6.276779968640888
H -0.42192676710779436 1.8685973351011886 7.223667424182481
H -1.2263144402547035 1.7382727810462788 5.93234591715966
O 0.9300729775092673 -0.8408393976760229 7.619672227014361
H 0.6673814922979875 -0.4250894445271718 8.454604869180313
H 0.8449738535065268 -1.7902240468080897 7.793996268346437
O 6.353729214105399 1.0944929112508088 3.7195046925215403
H 7.261403886014284 1.4211783834111058 3.6280134407293434
H 6.1560451544583366 1.2130767728424943 4.6606852408922865
O -6.864931657798678 -2.9599086191466197 2.3480514865237017
H -7.514601050436421 -2.723784332480059 3.027126120430693
H -6.051372470007553 -2.5219826430490824 2.640120368330138
O -1.9924151079224233 10.1886303618104 -0.8456742111646194
H -1.9400822793206705 10.376779736432107 -1.7947940375195426
H -2.880615798515305 9.81927023464949 -0.7289070325825977
O -9.143338173021553 -0.8069667294970586 4.208549619670594
H -9.545806948838715 -0.0569493538453647 4.671648073147587
H -9.864777494812776 -1.449350458031152 4.132192599115476
O 4.238730762507067 9.446629720753862 2.2849536666178887
H 4.2762611414237615 9.285788447929509 3.2397776883698617
H 3.4341153232897996 9.973734809409823 2.1678376353232953
O -4.51807670327249 -2.1106251921922823 -8.743732365800133
H -4.914593892197189 -2.145664451032774 -7.860265486892289
H -4.596737976765839 -3.019006521051489 -9.07178374856263
O 4.405420395110893 -3.804151919175546 -11.033166550669776
H 4.46484725889823 -3.2648014158021526 -11.835997067822227
H 4.003213711978985 -3.2103805980978724 -10.381532184932594
C -1.680499343621328 11.131872267981215 -4.717768727421792
O -0.7572353766045088 11.232573875627418 -3.9626123921336376
O -2.603763310638148 11.031170660335011 -5.4729250627099475
O -12.77076991793961 3.8952715005578518 -7.02446822115157
H -12.575086826660348 2.948695638024034 -6.956133594820893
H -12.055104798859825 4.3187347902892 -6.527010460248775
O 2.9268676752885163 -7.317258384741968 2.62111684063346
H 2.8258168778559574 -7.843612404434344 3.4284008917529665
H 2.38525232342532 -7.784716413740075 1.967589682780544
O 7.728097971475458 8.72345040060321 -15.2681201528371
H 7.787041298950771 8.602933456833856 -14.308449007438513
H 6.809259270451361 8.496973398670045 -15.476460147546987
O 7.359038939280575 -12.192939652065638 0.18910318492494538
H 7.002853101954809 -12.527247099829383 -0.6477585339738425
H 7.6537365892946845 -11.29479686785918 -0.024098078096713937
O -13.311046132214361 -4.936803324844838 5.4281785110513665
H -13.589020251595445 -4.124070217150845 4.979666926460314
H -13.857510994451765 -5.626603678791133 5.022575786288052
O 17.5754450921123 -8.319449936582687 -4.093523427336299
H 17.61178980893682 -8.472046533151815 -5.049745523490987
H 17.4234347656136 -9.201145616693626 -3.721411169258892
O -16.42639820514878 4.087724492353187 7.80780861043259
H -17.195184047225638 4.003221213101882 7.224032213412334
H -15.678432804041378 3.828897651308669 7.248775186207204
O -2.3687948016608007 -8.731474315618263 -17.715163531467457
H -2.604422284347106 -8.807102262874624 -16.778292430463317
H -2.052219747219384 -9.616919554065664 -17.94910563737453
O -5.625722065625199 -5.834932763969064 -4.3547425140425
H -5.58379682267467 -5.990132617637208 -5.310317019941922
H -5.530096567116702 -6.718957049044514 -3.9696207518271702
O -8.378808430446684 -13.634760739494778 -2.2825279142327877
H -8.39056714285956 -13.616132795922733 -3.2512807667708685
H -8.385653142922857 -12.699178334573606 -2.03033620577862
O 1.844388605875853 -14.857199791149117 -15.29881421939965
H 1.8327840351396851 -14.590146375891859 -16.230219160463133
H 2.73804024491636 -14.629658243731837 -15.001201154264455
O -13.061985769543199 -4.560133676379982 -9.873970499573135
H -13.939014568449714 -4.379676100754834 -9.503534396867025
H -12.539335791578662 -4.845822123109374 -9.109653120313041
O 7.01008270330898 3.0300676842072995 -14.909302525779067
H 6.873458678077469 2.7730299284153173 -13.985055359309529
H 7.96256513821321 2.9155225573706205 -15.04575240455101
O -9.889101255291186 4.966749171071534 1.937568196882276
H -10.555508396700985 4.34593349125395 2.2684107129993167
H -9.074152113885399 4.443184459213615 1.9111138263718235
O 4.315753684734958 7.516731456910616 -18.718646758977126
H 3.59420302443209 7.699511388186664 -18.09822472661591
H 4.656118132563774 8.394769222396565 -18.9470404308129
O -8.798914740989403 -16.73541892425459 -2.6409892642363917
H -8.951993550636667 -16.890063678167753 -3.5852451803015835
H -7.8710737101578765 -16.98261440585081 -2.5107304461705713
O 18.845597791181547 4.680115112379982 -2.144777667855185
H 18.208459955060846 4.390678967909715 -1.4745169327993222
H 19.1698984717536 3.853156361977724 -2.5319859296648173
O 12.418634719864151 15.560705508736133 0.3891793694662091
H 11.882625923792691 15.302182557416952 -0.375560985867053
H 11.814635348262689 16.09190439894092 0.9295259642091072
O 0.6312040559989459 0.36401012706239033 -16.342480520116816
H 0.8514262965983896 0.16563976316785212 -15.419919562578663
H 0.006606447497293555 1.1022490308018593 -16.280487837003704
O 14.195945202369881 -8.687778387921608 -8.093516621983198
H 13.309066435444828 -8.332773591109461 -8.255951236268041
H 14.675828032008559 -8.503658076921518 -8.914962983710613