194

C -5.0710522388059704 1.0783507462686561 0.47044029850746183
C -3.8153522388059704 0.1782507462686569 0.19534029850746193
C -4.11845223880597 -1.3219492537313435 0.5608402985074619
C -2.96945223880597 -2.3874492537313436 0.7034402985074619
C -2.52015223880597 0.7359507462686565 0.7384402985074618
C -2.20305223880597 0.7852507462686571 2.097440298507462
C -1.5755522388059702 1.205650746268656 -0.18965970149253808
C -0.9533522388059701 1.2695507462686564 2.508640298507462
H -2.91125223880597 0.4298507462686567 2.840840298507462
C -0.32655223880597006 1.6562507462686575 0.21554029850746192
H -1.7850522388059702 1.178550746268657 -1.2573597014925382
C 0.004447761194029898 1.6956507462686563 1.569740298507462
H -0.7158522388059702 1.2676507462686573 3.5705402985074617
H 0.3943477611940298 1.9193507462686572 -0.5551597014925382
C -1.76045223880597 -2.1592492537313435 -0.1734597014925381
C -0.5287522388059701 -1.936549253731343 0.464840298507462
C -1.8068522388059702 -2.121249253731343 -1.5681597014925381
C 0.6114477611940299 -1.614449253731343 -0.2582597014925381
H -0.4544522388059702 -1.954049253731343 1.5506402985074619
C -0.6479522388059701 -1.8270492537313432 -2.2998597014925384
H -2.74345223880597 -2.290549253731343 -2.092259701492538
C 0.5698477611940298 -1.5506492537313434 -1.6506597014925382
H 1.5072477611940298 -1.351949253731343 0.2991402985074618
H -0.7173522388059701 -1.7640492537313435 -3.3840597014925375
C 1.7791477611940298 -1.082849253731343 -2.4255597014925376
H 1.4739477611940297 -0.9102492537313429 -3.464259701492538
H 2.1252477611940295 -0.1337492537313434 -2.0010597014925384
C 1.3965477611940298 2.0964507462686566 1.997440298507462
H 1.51704776119403 1.8448507462686567 3.057640298507462
H 2.1256477611940294 1.5207507462686571 1.4165402985074618
C 3.94864776119403 -1.4275492537313434 -3.522959701492538
H 4.81734776119403 -2.087049253731343 -3.615159701492538
H 3.4305477611940303 -1.3641492537313429 -4.484459701492538
H 4.26984776119403 -0.441449253731343 -3.176459701492538
C 2.60904776119403 -3.4296492537313434 -2.8992597014925376
H 1.9825477611940296 -3.869549253731343 -2.119359701492538
H 2.06294776119403 -3.373349253731343 -3.845759701492538
H 3.5215477611940305 -4.019849253731343 -3.0234597014925377
C 3.7281477611940304 -2.060049253731343 -1.156659701492538
H 3.9048477611940298 -1.032549253731343 -0.8295597014925382
H 3.12924776119403 -2.623249253731343 -0.4404597014925382
H 4.68244776119403 -2.5769492537313434 -1.3005597014925383
C 3.1110477611940297 3.755250746268656 2.588740298507462
H 3.40124776119403 4.809350746268656 2.534540298507462
H 2.9823477611940303 3.461750746268656 3.634840298507462
H 3.86514776119403 3.1392507462686563 2.091540298507462
C 1.99744776119403 3.9574507462686572 0.40494029850746194
H 2.67914776119403 3.230350746268657 -0.04295970149253803
H 1.03214776119403 3.981150746268657 -0.10175970149253821
H 2.4399477611940297 4.958250746268657 0.368240298507462
C 0.7418477611940297 4.4992507462686575 2.475440298507462
H -0.18475223880597014 4.424250746268656 1.901240298507462
H 0.57844776119403 4.189650746268656 3.511940298507462
H 1.1210477611940297 5.524350746268658 2.4432402985074617
N 3.00114776119403 -2.025349253731343 -2.490159701492538
N 1.7831477611940298 3.586450746268657 1.862540298507462
C -3.55075223880597 -3.8435492537313434 0.6444402985074619
H -2.62515223880597 -2.2736492537313433 1.7424402985074618
H -4.67195223880597 -1.3478492537313436 1.5102402985074619
H -4.83415223880597 -1.6757492537313432 -0.1945597014925382
H -3.7169522388059697 0.17335074626865676 -0.900559701492538
H -3.9132522388059705 -4.043149253731343 -0.34225970149253815
H -4.35435223880597 -3.9354492537313432 1.3449402985074619
H -2.78115223880597 -4.545049253731343 0.8904402985074619
H -5.24235223880597 1.138950746268657 1.5249402985074618
H -5.92805223880597 0.6501507462686567 -0.006059701492538094
H -4.89895223880597 2.059650746268657 0.08004029850746197
C 2.2322408879415008 2.0085951256099355 -4.257779164923822
O 1.406258740345596 2.7576303694810607 -4.756252026664337
O 2.4107538889654925 1.8509897858214495 -3.0445499493855688
O 3.017438822585122 1.2922669216582787 -4.889432940385337
O -0.47788602085992515 -5.60731405651216 -6.308846078273924
H -0.8334188688964437 -5.634163723356295 -5.407822856454751
H -0.1958785412696522 -4.687172777112035 -6.421867101535272
O 4.6687634574445465 -2.0413348993583047 7.728062138967097
H 4.095809488948455 -2.48388153578185 7.08397861839326
H 4.615664379187624 -2.60481475862412 8.514594325460466
O -2.3742381332253206 -3.9908008755430044 -4.006284206320746
H -2.7398203120973883 -4.80559626167669 -4.382350033173457
H -1.4890797684762376 -3.929809783859802 -4.395818159077139
O -4.793295930591227 -7.63602563513515 -0.46507860050483574
H -4.565221308261885 -6.8046172952131485 -0.9074692602813164
H -4.078784631060025 -7.763176334513991 0.1770025834506712
O -6.002265647858436 3.251796825487639 -3.119551674241806
H -6.698431124231105 3.2435136836582155 -2.4455691997157616
H -6.453648269821158 3.5631413805356127 -3.918476101789266
O -7.950569919606856 4.894898692091585 -1.6400171434816864
H -7.646752902350125 4.6895969191669735 -0.7430702337042816
H -8.81598071223888 4.4629352933699185 -1.6986151507928393
O 1.7000024260969857 -6.6514772621085765 1.1070923476513004
H 1.9615624400083167 -6.640423499821465 2.0400615488374947
H 1.5750007871250682 -5.715894580286041 0.8879540807327052
O 9.160719072217606 -6.855718968868618 -0.8738048884703761
H 8.6817557688109 -6.7973582243021795 -0.03347427830352728
H 8.83395498788834 -6.098500858535221 -1.38253655730531
O -0.44797509889914133 6.485165798755833 8.979505240085615
H -0.5731895815027896 6.346036724112142 9.930258515565166
H -1.2293789178086194 6.9920459745891534 8.712217935035666
O 1.1938909380149516 -9.702458031717846 7.6201288738571025
H 1.6908524959391014 -8.881494383049006 7.485907957417271
H 0.43916580766968316 -9.620306747518406 7.017963540722009
O -2.6623327051140038 -3.8564696795052527 7.0751662638872395
H -3.625665724784572 -3.9610419984235623 7.070531587152753
H -2.3331311872783327 -4.731537894310809 7.329810966152391
O -2.9467798514546155 4.832375407342143 -2.4430065997087302
H -3.6501585824121583 4.927955732315953 -1.7833929861329798
H -3.4203083852379037 4.80634988255842 -3.288024554578791
O 4.378673689755434 6.296336696818316 -3.2341664153617162
H 5.3374332718453665 6.42732753238332 -3.183285951048567
H 4.013285503284004 7.181315100455805 -3.084946300824972
O 6.205619236196167 5.300049428784026 6.321994735137743
H 6.3356212797533145 4.636267399050274 5.628121373079862
H 5.875462504244082 4.7888255661521315 7.076056164281579
O 4.104718831442284 5.833516283780501 -6.841718295256579
H 4.144575735905425 5.794726960640789 -7.809124193769184
H 4.872593023436745 5.3167226422823815 -6.55491609569046
O -3.9563091148001153 -2.279607399323017 -7.168854844144384
H -4.353185088390896 -1.6707799850246028 -6.5279289528862146
H -3.0060795082347123 -2.2236296182511275 -6.987492976231566
O -6.228929029412332 8.369323583774941 -2.0085842559517832
H -5.9893411753134735 8.026963819874805 -1.1343103805954695
H -6.936823132644434 7.778010830461338 -2.3055642395835148
O -7.800284573643275 -1.0202362764406412 3.171152786247994
H -7.11281030396499 -1.2364048377788652 2.5233737818651143
H -7.3184417649420155 -0.5742630408625207 3.8838219417127604
O -7.486010325006282 2.1983769634480677 4.161414778308529
H -7.465887396505254 2.3616860340877373 3.2064841148070626
H -8.155769195350354 2.8165000847684376 4.490517811999493
O -9.189904970947431 0.5528741290854877 -2.1875378028706365
H -9.441043275563846 -0.22571651973044737 -1.6682175640672794
H -8.971662858717808 0.1919055681955011 -3.0599104427433943
C 6.143400057199297 5.4633570672389515 1.5525351181386737
O 5.542639434351961 5.066309554746852 2.508703620108864
O 6.744160680046632 5.860404579731052 0.5963666161684833
O -4.410986382990498 16.66019311514078 -13.185564681825323
H -4.0362123939230745 15.778973479265217 -13.3337664610516
H -5.101032411860119 16.512418850950386 -12.521515595398533
O -14.453626205363182 -0.1794836618640656 -4.266932537636423
H -14.176725681242008 0.6686766847651264 -4.644976824787109
H -15.389192827169577 -0.04600221172107544 -4.052783657346352
O 5.9151759605743335 -10.261201318874246 9.266605221562425
H 5.068011429986544 -10.596585433660138 8.936761151488009
H 6.523424243701432 -11.006409209892752 9.14972421567744
O -0.7936309226989177 16.63369427074544 -2.2626613421405866
H 0.1666329564239803 16.6387519124186 -2.132911353267556
H -1.0012263299603572 15.703577909919744 -2.438017113383847
O 12.286851993826904 3.403754259182498 14.565424007154753
H 12.240653697325426 3.2856660987662747 15.526094741938465
H 13.082336421342731 3.941157197463518 14.433649382105997
O 2.338479842398238 14.445652723378926 2.0406079744878096
H 2.2579029754238436 14.32108757697679 2.998187344415131
H 1.5094039310686078 14.88047400119031 1.7905569118717515
O 1.7334020510267605 -13.387826765474905 15.666698332570729
H 2.4378844699975772 -13.873160570789313 15.211590679723555
H 2.1876607526038656 -12.62479902686392 16.05451226534222
O 7.784597475150922 12.291258380772701 -6.315198681245364
H 6.838779330327792 12.12053779135438 -6.438689062133903
H 7.810070153286764 13.136905393280644 -5.842764328975143
O 4.519598643264153 -9.984409432718845 -19.597518070756244
H 4.018971796119307 -10.651370797241391 -20.09097795266361
H 5.016514594682171 -9.511161298232938 -20.28167644769242
O 2.468738236551923 7.167886747592216 -16.098060832795653
H 2.343064677353606 7.52843516899541 -15.207455224660325
H 3.353925696899811 6.774769673936973 -16.068665752533928
O -2.859386792885016 4.524917520944224 4.648046193183881
H -2.297519928126697 4.644283070107519 5.428446634534091
H -2.3353864398172273 4.89762419816345 3.9231494370585436
O -14.556898068602493 6.222473961285124 -6.872495027626922
H -14.356765022942666 5.426920975076259 -7.388256180748287
H -15.237627331312606 6.67415320595448 -7.393604877010969
O 6.368960361499992 4.263741434392182 -12.385424405765578
H 7.172273297541858 3.865209242883991 -12.752613425235758
H 6.3318000104147085 3.9228975611814048 -11.479109611280851
O -4.19800654704288 -12.325448534502996 12.831444356382782
H -3.4820362957115094 -12.902517317564847 13.136969438371166
H -4.9208991437254666 -12.937514448266574 12.627083021560708
O 6.341435154798594 -10.106940274322184 3.880009873537245
H 7.126323965750865 -10.318432935925262 3.352574791816301
H 5.951517898579502 -9.345711192046453 3.4245356570329273
O -3.457284054593184 6.837669061986897 -5.579870988465061
H -4.011970865457171 6.805202763070829 -4.785997044952469
H -4.001020267158987 7.312825511180226 -6.226043739542187
O -21.255948834184604 -3.227864718968302 4.69970566431668
H -20.716460084808148 -3.443100566451168 3.9240815439113383
H -21.556914098988237 -4.090638382839163 5.022201336555125
O -8.567259652658384 11.865321553968599 -2.323205676395811
H -8.75807034125557 12.599142345163346 -1.7198271182522635
H -8.012143598320723 11.269125267204565 -1.798459930185932
O 7.942411038113221 -11.381065423001875 7.164125549499127
H 8.280642242641253 -10.70477300403608 6.558158905835543
H 7.140825428812409 -11.706575425771703 6.727701795151783
O -6.5633098580176705 -13.845692560829796 -9.729297989506144
H -6.395744859376654 -14.343608475793712 -8.915068863426708
H -5.7501269348496615 -13.958342874311533 -10.244084726554018