194

C -5.0710522388059704 1.0783507462686561 0.47044029850746183
C -3.8153522388059704 0.1782507462686569 0.19534029850746193
C -4.11845223880597 -1.3219492537313435 0.5608402985074619
C -2.96945223880597 -2.3874492537313436 0.7034402985074619
C -2.52015223880597 0.7359507462686565 0.7384402985074618
C -2.20305223880597 0.7852507462686571 2.097440298507462
C -1.5755522388059702 1.205650746268656 -0.18965970149253808
C -0.9533522388059701 1.2695507462686564 2.508640298507462
H -2.91125223880597 0.4298507462686567 2.840840298507462
C -0.32655223880597006 1.6562507462686575 0.21554029850746192
H -1.7850522388059702 1.178550746268657 -1.2573597014925382
C 0.004447761194029898 1.6956507462686563 1.569740298507462
H -0.7158522388059702 1.2676507462686573 3.5705402985074617
H 0.3943477611940298 1.9193507462686572 -0.5551597014925382
C -1.76045223880597 -2.1592492537313435 -0.1734597014925381
C -0.5287522388059701 -1.936549253731343 0.464840298507462
C -1.8068522388059702 -2.121249253731343 -1.5681597014925381
C 0.6114477611940299 -1.614449253731343 -0.2582597014925381
H -0.4544522388059702 -1.954049253731343 1.5506402985074619
C -0.6479522388059701 -1.8270492537313432 -2.2998597014925384
H -2.74345223880597 -2.290549253731343 -2.092259701492538
C 0.5698477611940298 -1.5506492537313434 -1.6506597014925382
H 1.5072477611940298 -1.351949253731343 0.2991402985074618
H -0.7173522388059701 -1.7640492537313435 -3.3840597014925375
C 1.7791477611940298 -1.082849253731343 -2.4255597014925376
H 1.4739477611940297 -0.9102492537313429 -3.464259701492538
H 2.1252477611940295 -0.1337492537313434 -2.0010597014925384
C 1.3965477611940298 2.0964507462686566 1.997440298507462
H 1.51704776119403 1.8448507462686567 3.057640298507462
H 2.1256477611940294 1.5207507462686571 1.4165402985074618
C 3.94864776119403 -1.4275492537313434 -3.522959701492538
H 4.81734776119403 -2.087049253731343 -3.615159701492538
H 3.4305477611940303 -1.3641492537313429 -4.484459701492538
H 4.26984776119403 -0.441449253731343 -3.176459701492538
C 2.60904776119403 -3.4296492537313434 -2.8992597014925376
H 1.9825477611940296 -3.869549253731343 -2.119359701492538
H 2.06294776119403 -3.373349253731343 -3.845759701492538
H 3.5215477611940305 -4.019849253731343 -3.0234597014925377
C 3.7281477611940304 -2.060049253731343 -1.156659701492538
H 3.9048477611940298 -1.032549253731343 -0.8295597014925382
H 3.12924776119403 -2.623249253731343 -0.4404597014925382
H 4.68244776119403 -2.5769492537313434 -1.3005597014925383
C 3.1110477611940297 3.755250746268656 2.588740298507462
H 3.40124776119403 4.809350746268656 2.534540298507462
H 2.9823477611940303 3.461750746268656 3.634840298507462
H 3.86514776119403 3.1392507462686563 2.091540298507462
C 1.99744776119403 3.9574507462686572 0.40494029850746194
H 2.67914776119403 3.230350746268657 -0.04295970149253803
H 1.03214776119403 3.981150746268657 -0.10175970149253821
H 2.4399477611940297 4.958250746268657 0.368240298507462
C 0.7418477611940297 4.4992507462686575 2.475440298507462
H -0.18475223880597014 4.424250746268656 1.901240298507462
H 0.57844776119403 4.189650746268656 3.511940298507462
H 1.1210477611940297 5.524350746268658 2.4432402985074617
N 3.00114776119403 -2.025349253731343 -2.490159701492538
N 1.7831477611940298 3.586450746268657 1.862540298507462
C -3.55075223880597 -3.8435492537313434 0.6444402985074619
H -2.62515223880597 -2.2736492537313433 1.7424402985074618
H -4.67195223880597 -1.3478492537313436 1.5102402985074619
H -4.83415223880597 -1.6757492537313432 -0.1945597014925382
H -3.7169522388059697 0.17335074626865676 -0.900559701492538
H -3.9132522388059705 -4.043149253731343 -0.34225970149253815
H -4.35435223880597 -3.9354492537313432 1.3449402985074619
H -2.78115223880597 -4.545049253731343 0.8904402985074619
H -5.24235223880597 1.138950746268657 1.5249402985074618
H -5.92805223880597 0.6501507462686567 -0.006059701492538094
H -4.89895223880597 2.059650746268657 0.08004029850746197
C -0.2309802026095813 2.4860229887005314 -2.8193572003802863
O 0.7812060225972086 3.07018492722703 -3.17433519079461
O -1.2170209155887404 3.0207747017405633 -2.299361256311197
O -0.4258924208736141 1.2696936972916837 -2.925190401372437
O -2.5468482544229807 2.739463870627884 5.062719277928764
H -2.518592918419314 3.1250452288997064 5.951255157362216
H -1.7980677899418827 2.1245325407665616 5.050503719552003
O 8.722748247215229 -3.7411262380395565 -5.000470208230432
H 9.57323051015283 -3.2883947538553335 -5.103821456683884
H 8.41426618642843 -3.46275310041157 -4.125079347688766
O -10.48969091750385 -0.1522865436300358 1.7873289420746086
H -10.119273125572812 -0.10067806007282476 0.8934080391162649
H -9.71204679783136 -0.24542729051894607 2.3579044136011813
O -3.759494727552566 6.874966868475519 -1.055588982912462
H -3.627322239834063 6.89768672568186 -2.015266844738412
H -4.489916949274775 6.249810678538632 -0.9346548665598633
O 7.19578861940679 0.5770351543535279 4.106913040890163
H 7.445797188430208 0.773318123483097 5.022301520359151
H 7.3356944565477376 -0.3783752247589593 4.025800104079667
O 6.334733255548124 -1.6107046722038827 7.303228271796728
H 7.259012416087149 -1.4926794507735615 7.569208416543661
H 5.8580777267349795 -0.9335245108347314 7.8064066499092135
O -4.303141513763342 8.91562906783635 -0.43848556105740544
H -5.086621754288914 9.289897700604817 -0.008312270241231268
H -3.6069648003236896 8.998117470181567 0.23046555183717476
O -1.6386054150903473 4.459635766753158 -5.466316792092309
H -2.297424347765794 3.9837276079269563 -4.938646065965644
H -1.9448336445448433 5.378821272034574 -5.4494578874507535
O 5.838340226001302 5.486599229263209 6.822866732751065
H 6.153414785815709 6.375211179078786 6.59911646727029
H 5.5309795312568 5.12736691747547 5.977027803761738
O 6.314366831578377 9.21359227759381 -0.4485387480522989
H 5.905436443294982 8.92182220604978 -1.2771602055282587
H 7.261824237488194 9.069297139080419 -0.5915958041105092
O 5.1941294833896245 12.116846226188056 -4.064235220063669
H 6.141586414449071 12.277690021413763 -4.1884205421625555
H 4.953005467517978 11.549743176840362 -4.812042203643305
O -0.3367998025007184 10.112665112195693 -1.9437116654123379
H 0.018157682867784963 10.230424146648952 -1.049784738708871
H -0.7418470147958933 9.232683412178499 -1.9206702299805423
O -1.8691680312135897 0.9434279295629477 -4.76333140733676
H -1.927169602345121 1.3609366516202608 -5.635850542744312
H -2.6386918300225015 1.2893188181344122 -4.286724063110988
O -0.869604904319893 -9.760428059569296 3.622373469747825
H -1.6004596449212103 -10.370657664435504 3.802480477899695
H -1.2556497414679766 -8.883574265275811 3.767489807368457
O 2.7711282580330563 3.023527362269772 -3.5015884895926566
H 2.87411827288779 3.594244031213386 -4.277889267339354
H 3.5795302100439756 3.1765355928288126 -2.9896932760321784
O -4.76851196998004 -0.9022414896622255 8.653724749289577
H -4.733687108239123 -1.5597759549196208 7.942807726773307
H -5.632564105216894 -1.049690428542684 9.066804235969393
O -2.177302894396025 -2.660259439950817 -5.772080789009428
H -2.053099380733544 -2.5195786882218756 -4.821423242788459
H -1.3300440884537488 -2.3953073350786105 -6.160558384472866
O 3.316882828283828 -6.543901018614659 4.280930496047287
H 3.373382640203448 -6.364650125057361 3.3303284524391543
H 4.121146160016037 -6.142609860394649 4.642991048808075
O -9.096995686231413 4.708627934780883 2.2808545050337274
H -9.374015937795267 5.256726007020126 3.030398126400172
H -9.813288036774079 4.063011201738805 2.185637663718043
O 9.512094868586992 -6.765537514046807 -3.338867798172133
H 9.214549409807542 -6.35234256930136 -2.5144261722843244
H 8.87211320508911 -6.458833259722495 -3.998654062856275
C -14.318239485067037 7.343510737640614 -5.20200616055231
O -13.35702081791792 7.729137218770395 -5.802147100895107
O -15.279458152216154 6.957884256510832 -4.601865220209513
O -10.390442415075105 -8.32028218071443 8.000968420693745
H -10.382481018041172 -8.499723278996461 7.0487579054689835
H -9.59874362233405 -8.771291389119222 8.330764812133127
O -6.4587506565686175 4.957729835706312 -14.317307229913485
H -6.277981286547249 4.529639617416845 -15.167618088815662
H -7.426015592472332 4.964800430543905 -14.259770330797993
O 12.413292003917007 1.9445706151520374 10.34229398625639
H 12.710010625347971 1.2042757594379054 9.79194051511325
H 12.364308888656751 2.690065732866321 9.725204342700797
O -17.95682839868483 9.150283985296294 7.199016252141247
H -17.43125663455284 9.335098614161009 6.406182580678697
H -17.297169308964925 8.905819494029105 7.865386226074179
O -19.344787491319263 -2.673257499602167 -6.580165859598812
H -18.755306426772815 -3.4417113566311173 -6.549212652034486
H -19.545949874212766 -2.570382578177851 -7.522456892428131
O 10.703016779686921 -1.0457769652357791 0.948166917109114
H 11.125100648310891 -1.826794434349279 1.3365279317423655
H 10.846113310128576 -1.1516834105123064 -0.004339855635547618
O -22.07767914898928 -9.907550347697425 5.870844429787684
H -21.74025145253717 -9.790456089658061 4.9700676309627845
H -22.742094096457713 -10.607377287168784 5.782770729566409
O 18.556125595181516 -5.137203778913173 -6.239738646750157
H 18.482591961105136 -4.349618590086023 -5.68003360666241
H 18.521074914155466 -4.7868812532570235 -7.142516317097352
O 10.105920137519671 10.118420520827804 -11.16019007399708
H 10.019233840078417 10.102304943256971 -10.195206586627744
H 10.872471178113054 9.552278679587248 -11.335817127898116
O -1.2615735046780454 20.02264923931778 12.75351328908441
H -1.443893135700705 20.247474504487364 11.82875358560183
H -0.8830624956181534 19.131817949636677 12.707567955854895
O 13.244370531156541 4.754044689731865 -6.931014341694553
H 13.087417913840602 4.862860384150156 -7.881010329826052
H 12.670775702352419 4.0137096109308334 -6.682307912815366
O -23.170198803637486 1.4143142637312334 -1.9421536276258404
H -23.827053297214956 1.686803432125064 -1.283929361683661
H -23.088266608735545 0.4579997782459433 -1.809068449677444
O 0.6465019016917393 -2.97451512661726 10.246257521778956
H 0.29232489320313215 -3.209075281654112 11.117180903728913
H 0.33652634264532577 -3.6874253311261036 9.667780091449112
O -7.06771906964253 -1.7281853215208196 -14.51733678963658
H -7.463180141457962 -2.3303197513455514 -15.165420137670022
H -6.117891773863212 -1.9101941080986282 -14.577858307306093
O 6.010728636501615 -5.260654358928662 9.737834553475878
H 6.182624560954707 -6.214288513829378 9.73885761907314
H 5.568279618006008 -5.103486542298822 8.890191298475237
O 8.616215571409377 -8.682947289183549 7.7991747693954
H 8.643265656854911 -9.553456557622871 8.22396797006912
H 8.16415869119107 -8.846969551717244 6.957923785003336
O -8.068264891658313 13.970829860447163 8.922094641867998
H -8.002051156486345 14.01799053270312 7.956507271835154
H -7.693976439995409 14.812186019179357 9.223739985633138
O -4.58141200260272 -4.243401476903788 -16.52105503445617
H -5.132395316657419 -4.968524961823069 -16.852084755405546
H -3.8895513769510854 -4.689632228629182 -16.010008133293944
O -9.965701688374352 -9.35104333558451 13.278686300898304
H -9.910431350620827 -9.892326742800012 14.080512229474941
H -9.743766058977297 -8.4583025965995 13.583186700997597
O 12.388735677570178 -3.7505531481622754 -15.392670253860686
H 12.435291923506943 -3.794050509004599 -14.42576392310055
H 13.192444813621607 -4.205243039004721 -15.686388949372482