194

C -5.0710522388059704 1.0783507462686561 0.47044029850746183
C -3.8153522388059704 0.1782507462686569 0.19534029850746193
C -4.11845223880597 -1.3219492537313435 0.5608402985074619
C -2.96945223880597 -2.3874492537313436 0.7034402985074619
C -2.52015223880597 0.7359507462686565 0.7384402985074618
C -2.20305223880597 0.7852507462686571 2.097440298507462
C -1.5755522388059702 1.205650746268656 -0.18965970149253808
C -0.9533522388059701 1.2695507462686564 2.508640298507462
H -2.91125223880597 0.4298507462686567 2.840840298507462
C -0.32655223880597006 1.6562507462686575 0.21554029850746192
H -1.7850522388059702 1.178550746268657 -1.2573597014925382
C 0.004447761194029898 1.6956507462686563 1.569740298507462
H -0.7158522388059702 1.2676507462686573 3.5705402985074617
H 0.3943477611940298 1.9193507462686572 -0.5551597014925382
C -1.76045223880597 -2.1592492537313435 -0.1734597014925381
C -0.5287522388059701 -1.936549253731343 0.464840298507462
C -1.8068522388059702 -2.121249253731343 -1.5681597014925381
C 0.6114477611940299 -1.614449253731343 -0.2582597014925381
H -0.4544522388059702 -1.954049253731343 1.5506402985074619
C -0.6479522388059701 -1.8270492537313432 -2.2998597014925384
H -2.74345223880597 -2.290549253731343 -2.092259701492538
C 0.5698477611940298 -1.5506492537313434 -1.6506597014925382
H 1.5072477611940298 -1.351949253731343 0.2991402985074618
H -0.7173522388059701 -1.7640492537313435 -3.3840597014925375
C 1.7791477611940298 -1.082849253731343 -2.4255597014925376
H 1.4739477611940297 -0.9102492537313429 -3.464259701492538
H 2.1252477611940295 -0.1337492537313434 -2.0010597014925384
C 1.3965477611940298 2.0964507462686566 1.997440298507462
H 1.51704776119403 1.8448507462686567 3.057640298507462
H 2.1256477611940294 1.5207507462686571 1.4165402985074618
C 3.94864776119403 -1.4275492537313434 -3.522959701492538
H 4.81734776119403 -2.087049253731343 -3.615159701492538
H 3.4305477611940303 -1.3641492537313429 -4.484459701492538
H 4.26984776119403 -0.441449253731343 -3.176459701492538
C 2.60904776119403 -3.4296492537313434 -2.8992597014925376
H 1.9825477611940296 -3.869549253731343 -2.119359701492538
H 2.06294776119403 -3.373349253731343 -3.845759701492538
H 3.5215477611940305 -4.019849253731343 -3.0234597014925377
C 3.7281477611940304 -2.060049253731343 -1.156659701492538
H 3.9048477611940298 -1.032549253731343 -0.8295597014925382
H 3.12924776119403 -2.623249253731343 -0.4404597014925382
H 4.68244776119403 -2.5769492537313434 -1.3005597014925383
C 3.1110477611940297 3.755250746268656 2.588740298507462
H 3.40124776119403 4.809350746268656 2.534540298507462
H 2.9823477611940303 3.461750746268656 3.634840298507462
H 3.86514776119403 3.1392507462686563 2.091540298507462
C 1.99744776119403 3.9574507462686572 0.40494029850746194
H 2.67914776119403 3.230350746268657 -0.04295970149253803
H 1.03214776119403 3.981150746268657 -0.10175970149253821
H 2.4399477611940297 4.958250746268657 0.368240298507462
C 0.7418477611940297 4.4992507462686575 2.475440298507462
H -0.18475223880597014 4.424250746268656 1.901240298507462
H 0.57844776119403 4.189650746268656 3.511940298507462
H 1.1210477611940297 5.524350746268658 2.4432402985074617
N 3.00114776119403 -2.025349253731343 -2.490159701492538
N 1.7831477611940298 3.586450746268657 1.862540298507462
C -3.55075223880597 -3.8435492537313434 0.6444402985074619
H -2.62515223880597 -2.2736492537313433 1.7424402985074618
H -4.67195223880597 -1.3478492537313436 1.5102402985074619
H -4.83415223880597 -1.6757492537313432 -0.1945597014925382
H -3.7169522388059697 0.17335074626865676 -0.900559701492538
H -3.9132522388059705 -4.043149253731343 -0.34225970149253815
H -4.35435223880597 -3.9354492537313432 1.3449402985074619
H -2.78115223880597 -4.545049253731343 0.8904402985074619
H -5.24235223880597 1.138950746268657 1.5249402985074618
H -5.92805223880597 0.6501507462686567 -0.006059701492538094
H -4.89895223880597 2.059650746268657 0.08004029850746197
C 2.29909745193142 -1.675425420266546 3.7779872611389744
O 2.589226931818404 -1.346362889430797 4.917863672992681
O 1.3642124252927084 -2.422875609786213 3.468245973523407
O 2.895487462213344 -1.3118979572763179 2.757783789429622
O 1.3060415110407613 6.330168193761258 6.335444027593974
H 1.8164662472518853 6.01010200296711 7.094385118242207
H 1.8880184608182549 6.16962963100443 5.577491427429784
O 2.8053724090919987 8.67153620759535 -6.941163466113778
H 2.762138739989192 9.131722166568185 -6.0895020956617865
H 1.9809905653784563 8.921939145156603 -7.384621343387549
O 5.350657741402934 -2.168946234638342 10.979187528330932
H 4.820152881370455 -1.4276650257221086 10.650502086472597
H 4.6935109515715325 -2.841822736836801 11.212333949498943
O 4.89315188535993 7.216900042655868 -3.748750443070783
H 5.197482796071782 7.2586434391945245 -4.667775765099895
H 4.475482986526366 6.345252540974219 -3.67986453697022
O 10.398998978915508 -2.4673503999698516 1.289516856653675
H 10.03619061700489 -3.3142492655259717 1.5896830788497986
H 10.336639107578602 -2.51514346149906 0.3237068266702883
O -5.499497246705344 1.5665585055312015 -5.2826346929229
H -5.044310703631663 1.4300023823494425 -6.127101976555724
H -5.929555335783931 0.7158976980663843 -5.108312649103485
O -1.011915636470527 -1.3242061514395478 -10.283096629734995
H -1.1346000658151394 -1.7388467497117643 -9.415923600887323
H -0.9963199921849544 -0.3750551208660724 -10.088594595450967
O 2.6279626083671594 -6.170645027859377 1.9190268243277706
H 1.800480239468031 -6.047831197325463 1.4299899657059743
H 2.9446713703571943 -7.039215920858278 1.628781913581983
O -2.6030815409454346 8.916750777468732 5.770170437720565
H -2.5475689788059235 8.954697360279567 6.736837789604184
H -3.5512343361282896 8.996543820504357 5.586863886910031
O -3.9593278132819294 7.822971649935315 -6.235872778897237
H -4.0021842064599795 7.829043396495566 -5.2678367153347905
H -4.885570977660108 7.893697154332626 -6.511614411173624
O 3.231447340020514 -7.70064516915791 -0.721565578477607
H 3.3796885223221387 -8.556328025899942 -1.151447838460051
H 2.5024993382914635 -7.308695303880733 -1.2255219835211626
O -11.343018683579068 -3.7880852552511746 2.675296007217888
H -11.65397502455096 -3.817507809884376 3.5925788557374863
H -10.384032054542523 -3.6755127043997913 2.756745441985337
O -5.785125365871074 6.082253861441809 -5.367262239675122
H -5.739081392190711 6.100508283494726 -4.39952566112534
H -4.859190501345445 6.012853433369215 -5.644372599530619
O -7.430946189299329 8.078034947506305 1.554336386344886
H -7.594245470915181 8.95343436805356 1.1722676019234477
H -7.201707614925216 8.264489802536401 2.477183181514393
O -4.648014282650285 -2.0030512010164365 -3.221060994614975
H -4.420206296186437 -2.4555691543030536 -4.047074541814158
H -4.076929186191307 -1.220227213191819 -3.2178421456278334
O -0.9448096539180011 -6.383791766010701 -2.5843288405416027
H -0.6304426419845683 -6.2637322980704075 -1.675633917662675
H -1.045772929164982 -5.479829785445316 -2.9184262799866074
O 5.611206956697833 0.13493883477201507 -5.666086787482814
H 4.926535985991256 -0.4010038350613856 -6.093823240714896
H 5.552598631991967 -0.11312768866147804 -4.7312124598179714
O -8.825760277462686 2.999261393672661 -2.5513822594489737
H -9.37955577448382 3.7913948707699987 -2.6206820346347497
H -8.157133995399954 3.1199486348432512 -3.2422769178836726
O -6.4736323691839 -7.427511353993812 -4.530174814683416
H -5.630261967928894 -7.786016049985063 -4.215265135347902
H -6.985177379632477 -7.286119848603642 -3.719439291353727
O 8.835151189656429 -1.5113192946651335 4.75481113492393
H 9.401616929335978 -2.2737269529718596 4.56292969959326
H 7.9423777655445535 -1.824452000712328 4.5453702938658465
C 7.722443436973899 6.1691112566453 18.4202587839007
O 6.546914765501583 6.386889715255101 18.479614851931462
O 8.897972108446215 5.951332798035499 18.36090271586994
O -7.011877116872479 0.36128588362029657 -15.984478198911841
H -7.092917937973288 0.6008909231943704 -16.91988675522615
H -7.675527875797236 -0.3341931287229727 -15.86266457952294
O -6.058174016155252 -14.993057343414957 1.7649203675227487
H -5.774136022035155 -14.464807371107206 1.0038410408076601
H -6.94972201958445 -14.665818268546253 1.9573227837250469
O 7.929325450855537 -0.5128797625090326 -7.834124311429735
H 7.724259322149042 -0.04453595388635863 -7.010978323963271
H 7.149875061551262 -1.0675565927671569 -7.988243255392544
O -7.875614935099268 -10.559002061695429 4.17585635989364
H -7.199366396229551 -10.61937314707809 4.867239468326507
H -7.460152551918475 -10.016477756963887 3.4888190019302647
O -13.00049031586521 5.952422469828638 -8.634146344857637
H -12.85997738501252 6.0602151439895575 -9.586828984859244
H -12.623832994241035 5.0811883832944 -8.439101804232282
O -12.231712973944738 -4.240889368387289 -14.87778612243018
H -13.141117247092433 -4.327939440339879 -14.55471722907496
H -11.70366368934035 -4.153909012330342 -14.069974068181791
O -11.299354693391647 -4.7377395673520715 -3.9456607543206053
H -11.19430173020523 -4.66098645482511 -4.905889993379267
H -11.909627215445777 -5.482352727283417 -3.835748811462917
O 4.37443022147048 12.222363881099424 0.8626816014380301
H 4.713766951096017 11.337213967927116 1.0634988617472443
H 3.586648518695202 12.30327330891219 1.4210861121321097
O -6.201782669250083 15.1613661966088 -3.473741248139895
H -6.810079910189278 15.628154607741788 -4.066236313771418
H -6.03978879430316 14.317669938249798 -3.9219560988651923
O -7.7939715159312515 9.487594801223468 4.8205598962458875
H -8.40929100110743 9.295813177169293 4.096979149723658
H -7.757391360533029 8.659469444299203 5.322388781175899
O 5.081166315737227 -9.769947301238254 19.68871563661503
H 5.55034737745888 -9.378716923990243 20.440895987422014
H 4.148278610043093 -9.581946403076845 19.871302972307394
O 2.6330475469561434 -3.1896775768859733 -11.271907368363033
H 2.492981910819513 -2.2785080426251416 -10.973379221769548
H 3.32614670581055 -3.111659008525443 -11.94458009955279
O 0.41787586296028545 11.831606121609754 2.8590210147682136
H -0.022742211883198138 12.128574075818587 3.669350023994864
H 1.3396158100679392 11.701336770155553 3.128069914185556
O 5.554182313872078 -7.401552770433661 -8.532943233574265
H 5.83400670901595 -7.730750710928974 -9.400292287159965
H 6.201232151203368 -6.710917595530251 -8.32482906419677
O -6.37931493168454 -6.242448177160166 12.539741088814427
H -7.307716034105 -5.97779051432867 12.623377632436494
H -5.888933629888929 -5.413969655228674 12.649793175788979
O 2.919466761146995 -9.351233731489483 9.050533299917873
H 3.589289678826542 -8.779288942091377 8.646573185882321
H 2.833503273633132 -10.087714687333431 8.426699968976315
O -10.223361567315404 -10.085921776004714 11.91736932697663
H -9.700778427213177 -10.717311084603498 11.40043436049821
H -11.009917678201802 -9.931864772733435 11.372798056645244
O 7.925445554696743 15.285061775682262 10.014368548395472
H 7.067701549743594 15.201955314543076 9.571270483646984
H 7.695405856852079 15.42722432886101 10.944870289494991
O -7.5720576811954245 3.4132191167758243 20.926375443846855
H -7.119999027091816 2.9753702136111393 21.6631920208506
H -7.093489602262642 3.1054148522390133 20.142034272634007
O 16.69985828586533 2.9781081689615094 -10.764078058491165
H 16.62287528582369 3.1682596632821234 -9.817038785909386
H 16.980001642554868 2.0509902799171815 -10.794640516126366