194

C -5.0710522388059704 1.0783507462686561 0.47044029850746183
C -3.8153522388059704 0.1782507462686569 0.19534029850746193
C -4.11845223880597 -1.3219492537313435 0.5608402985074619
C -2.96945223880597 -2.3874492537313436 0.7034402985074619
C -2.52015223880597 0.7359507462686565 0.7384402985074618
C -2.20305223880597 0.7852507462686571 2.097440298507462
C -1.5755522388059702 1.205650746268656 -0.18965970149253808
C -0.9533522388059701 1.2695507462686564 2.508640298507462
H -2.91125223880597 0.4298507462686567 2.840840298507462
C -0.32655223880597006 1.6562507462686575 0.21554029850746192
H -1.7850522388059702 1.178550746268657 -1.2573597014925382
C 0.004447761194029898 1.6956507462686563 1.569740298507462
H -0.7158522388059702 1.2676507462686573 3.5705402985074617
H 0.3943477611940298 1.9193507462686572 -0.5551597014925382
C -1.76045223880597 -2.1592492537313435 -0.1734597014925381
C -0.5287522388059701 -1.936549253731343 0.464840298507462
C -1.8068522388059702 -2.121249253731343 -1.5681597014925381
C 0.6114477611940299 -1.614449253731343 -0.2582597014925381
H -0.4544522388059702 -1.954049253731343 1.5506402985074619
C -0.6479522388059701 -1.8270492537313432 -2.2998597014925384
H -2.74345223880597 -2.290549253731343 -2.092259701492538
C 0.5698477611940298 -1.5506492537313434 -1.6506597014925382
H 1.5072477611940298 -1.351949253731343 0.2991402985074618
H -0.7173522388059701 -1.7640492537313435 -3.3840597014925375
C 1.7791477611940298 -1.082849253731343 -2.4255597014925376
H 1.4739477611940297 -0.9102492537313429 -3.464259701492538
H 2.1252477611940295 -0.1337492537313434 -2.0010597014925384
C 1.3965477611940298 2.0964507462686566 1.997440298507462
H 1.51704776119403 1.8448507462686567 3.057640298507462
H 2.1256477611940294 1.5207507462686571 1.4165402985074618
C 3.94864776119403 -1.4275492537313434 -3.522959701492538
H 4.81734776119403 -2.087049253731343 -3.615159701492538
H 3.4305477611940303 -1.3641492537313429 -4.484459701492538
H 4.26984776119403 -0.441449253731343 -3.176459701492538
C 2.60904776119403 -3.4296492537313434 -2.8992597014925376
H 1.9825477611940296 -3.869549253731343 -2.119359701492538
H 2.06294776119403 -3.373349253731343 -3.845759701492538
H 3.5215477611940305 -4.019849253731343 -3.0234597014925377
C 3.7281477611940304 -2.060049253731343 -1.156659701492538
H 3.9048477611940298 -1.032549253731343 -0.8295597014925382
H 3.12924776119403 -2.623249253731343 -0.4404597014925382
H 4.68244776119403 -2.5769492537313434 -1.3005597014925383
C 3.1110477611940297 3.755250746268656 2.588740298507462
H 3.40124776119403 4.809350746268656 2.534540298507462
H 2.9823477611940303 3.461750746268656 3.634840298507462
H 3.86514776119403 3.1392507462686563 2.091540298507462
C 1.99744776119403 3.9574507462686572 0.40494029850746194
H 2.67914776119403 3.230350746268657 -0.04295970149253803
H 1.03214776119403 3.981150746268657 -0.10175970149253821
H 2.4399477611940297 4.958250746268657 0.368240298507462
C 0.7418477611940297 4.4992507462686575 2.475440298507462
H -0.18475223880597014 4.424250746268656 1.901240298507462
H 0.57844776119403 4.189650746268656 3.511940298507462
H 1.1210477611940297 5.524350746268658 2.4432402985074617
N 3.00114776119403 -2.025349253731343 -2.490159701492538
N 1.7831477611940298 3.586450746268657 1.862540298507462
C -3.55075223880597 -3.8435492537313434 0.6444402985074619
H -2.62515223880597 -2.2736492537313433 1.7424402985074618
H -4.67195223880597 -1.3478492537313436 1.5102402985074619
H -4.83415223880597 -1.6757492537313432 -0.1945597014925382
H -3.7169522388059697 0.17335074626865676 -0.900559701492538
H -3.9132522388059705 -4.043149253731343 -0.34225970149253815
H -4.35435223880597 -3.9354492537313432 1.3449402985074619
H -2.78115223880597 -4.545049253731343 0.8904402985074619
H -5.24235223880597 1.138950746268657 1.5249402985074618
H -5.92805223880597 0.6501507462686567 -0.006059701492538094
H -4.89895223880597 2.059650746268657 0.08004029850746197
C 1.2915641129709616 1.9700919468591072 -3.5085249095150624
O 0.42782837788989725 1.1602824696050733 -3.8084327105031672
O 1.8790583054012275 2.712586645331766 -4.303624689857571
O 1.7118240575628014 2.172430828689373 -2.3634969883396257
O 2.2107701887776794 0.5305540476167084 -7.629162408697336
H 2.315030447165069 0.3993256084492476 -8.58356078053934
H 1.6904947120410656 -0.23522878246606999 -7.343064471345635
O 1.5685631873053567 -6.054235741779739 4.023218105824197
H 1.6662263747023072 -6.022364034472007 3.0596759671500458
H 1.0585420810798614 -6.863069299796878 4.180153413928705
O 7.8469118799588236 -3.992634039783439 -2.2485681790496757
H 7.254977303775786 -3.955018668767231 -3.0148356899636655
H 8.444573706140176 -3.2408542527733095 -2.3773681699991105
O -3.1041390389194694 -2.2833910756255213 5.1512889169722325
H -3.1384280437810244 -3.1927060327281467 4.818215456854113
H -2.389328807965538 -1.8740041027500056 4.640984513244997
O -3.212240160679264 -7.552619497393474 -1.3956730852969574
H -3.47050545596382 -6.779903480174099 -1.920245626404674
H -3.4368047225703067 -7.3039444213944 -0.4864462662800867
O -1.2656065101479275 0.6779950465124216 9.047020560845077
H -0.3801732268360637 0.3445031574228832 8.837835433230648
H -1.217023101666999 1.62168293259352 8.832416808817854
O 6.738554722273761 4.515030612509463 -3.9429392978253572
H 6.931888816155325 4.538298919386797 -2.993703883958988
H 6.801857154649213 3.575558960173446 -4.171735628242575
O -3.8525345894056455 -7.162032540869704 3.878871649195717
H -3.676000922206046 -7.626158466204638 4.710971611145634
H -4.79647914097877 -7.3143458706883555 3.7216098375090634
O 1.2151817010385129 -8.88929680721494 -2.420625371677852
H 1.617942164905672 -9.013218526439186 -3.293204750960917
H 1.9616180122692275 -8.957402098361579 -1.8064947284966844
O -3.3740836711414772 8.705208967536185 -2.8231638920972744
H -3.3848294743845453 8.336502547520666 -1.9271128553521555
H -3.478508987969568 9.658638078238951 -2.685213798331879
O 5.51802779966485 -3.7666315361443994 -7.437460647942469
H 5.332056880260565 -4.072573697656681 -8.337894747610578
H 6.36339210347958 -3.300027937788533 -7.518714694839806
O 7.4431568587289245 7.095953586397698 -5.529679028601687
H 7.596318851236623 6.5907754672674645 -4.717088215890202
H 7.252440044058754 7.992530391517659 -5.215451287269147
O -3.741926664044682 5.770323081708829 7.571666561833498
H -3.800165203810363 5.7832018743314215 6.60450071975338
H -4.463135316501326 5.182219124614082 7.841766098247708
O -3.1541949989303317 1.915913184681477 -7.962264882607063
H -2.3530790659310608 1.8114286093263734 -7.427228816245577
H -3.324789122576174 2.8696131797848423 -7.944491064296192
O 7.3317997370418295 -0.01139145557970378 0.7269578167250013
H 7.30118199147371 -0.1463067919185449 1.6860343322214992
H 6.595279114826718 -0.5445675168735276 0.3919613913484468
O 6.273666821160804 -11.17390703310617 -3.78511704564218
H 6.151755649870244 -10.94254517113783 -2.8520700414451206
H 7.207815170533032 -10.979719266243698 -3.954291266095843
O 10.105182050074074 0.606354972514902 6.068313400949641
H 9.9707249548757 0.6486303681108643 5.109615618862907
H 9.757145335146703 1.4511837628216195 6.390953609899876
O -8.553983233972321 -5.003277297909479 3.136967526628515
H -8.577796675536291 -4.9775143859683615 2.168599544263756
H -9.2819212153841 -4.42235067879288 3.404535280141348
O 2.1125577382408274 11.021092344072187 2.998260856342664
H 2.5682971420245897 10.33494955503454 2.4878913570674235
H 2.122620943633074 10.682917749074337 3.9062799197412654
O -2.61163426555647 8.24561272086153 0.057173454057923845
H -2.049345415649876 7.554729144608594 -0.3242429722200655
H -2.677860781433027 8.003321056006628 0.9930531162136358
C 17.435361654501065 -1.6210726971616172 4.937639849894992
O 17.496879668408067 -1.7576177814797198 6.125237943196551
O 17.373843640594064 -1.4845276128435163 3.7500417565934314
O 6.279039172101583 -15.954911262856637 -2.6265931964356715
H 7.144948476285369 -16.37565747474689 -2.516406722638075
H 5.6509221415105655 -16.631385124883295 -2.331950948656675
O -4.2110341992808955 -1.3437379801506117 7.459091814456943
H -3.8569990025647396 -0.9297170394738319 8.260473806435343
H -4.49208733447102 -2.222808576554071 7.754398377266962
O 6.642511230122279 3.3673305248226884 -9.323444348036897
H 6.472173339837862 4.053397571220743 -8.660674125501135
H 7.526533664282821 3.0398037147625976 -9.09940759013157
O -3.9129856077530065 -0.6132365180662305 15.670370004876686
H -3.304204861271721 0.13799090742532627 15.607039800368742
H -4.171565080615074 -0.7830131791971011 14.752070224930272
O -2.023785226777484 -12.847140832598978 -2.6865660733650976
H -2.0689419475179953 -12.671436606722338 -3.638435944976262
H -2.0637396118699174 -13.813341778927445 -2.624749225128837
O 3.0052359836391123 3.1445263030995085 12.169820972186367
H 2.2509277682613544 3.6581575855610717 11.843984542684515
H 2.803507533960312 3.0010162864039116 13.106662715491082
O -0.24063990871524155 2.4584532960175265 17.29447825103758
H -0.7225831639455791 2.8178051390549608 18.054454769453503
H -0.8101835107860254 1.7434742061437651 16.97293986968393
O 7.029783343780063 -0.7618315641578945 15.571554952027416
H 7.004042418772672 -0.6419356906215112 16.53276759301208
H 7.942611616183021 -1.034205609578967 15.394019409718863
O -14.572728511104428 18.35475242717162 9.582349323740646
H -14.650812315704481 18.47726525432311 10.540399887929471
H -15.377878138103371 17.87228017579527 9.341690750040682
O -16.171169403167422 3.4440424801064218 -13.762925670532242
H -16.673440646732022 4.238514221563568 -13.99852194981976
H -15.301786266744813 3.5887704508042724 -14.16565227866941
O 8.869839766312305 15.075678629731376 -0.18050260288992748
H 8.82517065679179 14.917533427901967 0.7744644764866241
H 8.276326371235777 14.408232133131872 -0.5562937261775616
O -3.4540159438241558 8.65756250002608 10.394394173524262
H -3.5295409891536074 8.02596142760392 9.663406205262703
H -3.514456482135893 8.105149660032406 11.188213384578463
O -8.6619988401698 -3.569718032250023 9.752728887159595
H -8.138801147831643 -3.8186106873276806 8.976015311972175
H -8.505076161844576 -2.618016199011131 9.845469589857876
O 2.8398179464374147 7.1560697387399435 8.070685105699528
H 2.271537569485502 7.602221300824869 8.716420000002579
H 3.487340158045658 6.683977715396803 8.615484198273798
O 12.48878061004743 3.7584734580263413 11.455472096603408
H 12.339355665035516 3.669848122668911 10.502169892346558
H 12.205375825208591 2.905330073108086 11.817121148863565
O 16.515546283700147 4.645592404850835 -1.035622345385372
H 15.846635245665357 5.240867448719902 -0.6652536071772186
H 16.021246971847486 3.8384941672300243 -1.2435227288178332
O 5.288599349295776 -2.417089298690197 -13.699376180253491
H 5.31740662173817 -2.6567443296479345 -12.760918421965417
H 4.341800735478741 -2.375687519744961 -13.901416329417735
O 12.555860558023005 10.255259588855672 8.498801948665697
H 12.393414381729535 9.808617003802915 9.343247919657934
H 13.455402068345435 10.604329227208282 8.587894053182428
O -7.647007663169638 -10.243698264334679 -12.075308601384453
H -7.400611182843092 -10.588683984697129 -11.203964246878902
H -6.905285299342559 -10.496354267869243 -12.645374231971589
O -6.222709471264642 0.9617911847862359 -10.277511179094478
H -5.302983660397571 0.7294662787103698 -10.475240609735826
H -6.309907440005045 1.8701756285044713 -10.603388703569944