194

C -5.0710522388059704 1.0783507462686561 0.47044029850746183
C -3.8153522388059704 0.1782507462686569 0.19534029850746193
C -4.11845223880597 -1.3219492537313435 0.5608402985074619
C -2.96945223880597 -2.3874492537313436 0.7034402985074619
C -2.52015223880597 0.7359507462686565 0.7384402985074618
C -2.20305223880597 0.7852507462686571 2.097440298507462
C -1.5755522388059702 1.205650746268656 -0.18965970149253808
C -0.9533522388059701 1.2695507462686564 2.508640298507462
H -2.91125223880597 0.4298507462686567 2.840840298507462
C -0.32655223880597006 1.6562507462686575 0.21554029850746192
H -1.7850522388059702 1.178550746268657 -1.2573597014925382
C 0.004447761194029898 1.6956507462686563 1.569740298507462
H -0.7158522388059702 1.2676507462686573 3.5705402985074617
H 0.3943477611940298 1.9193507462686572 -0.5551597014925382
C -1.76045223880597 -2.1592492537313435 -0.1734597014925381
C -0.5287522388059701 -1.936549253731343 0.464840298507462
C -1.8068522388059702 -2.121249253731343 -1.5681597014925381
C 0.6114477611940299 -1.614449253731343 -0.2582597014925381
H -0.4544522388059702 -1.954049253731343 1.5506402985074619
C -0.6479522388059701 -1.8270492537313432 -2.2998597014925384
H -2.74345223880597 -2.290549253731343 -2.092259701492538
C 0.5698477611940298 -1.5506492537313434 -1.6506597014925382
H 1.5072477611940298 -1.351949253731343 0.2991402985074618
H -0.7173522388059701 -1.7640492537313435 -3.3840597014925375
C 1.7791477611940298 -1.082849253731343 -2.4255597014925376
H 1.4739477611940297 -0.9102492537313429 -3.464259701492538
H 2.1252477611940295 -0.1337492537313434 -2.0010597014925384
C 1.3965477611940298 2.0964507462686566 1.997440298507462
H 1.51704776119403 1.8448507462686567 3.057640298507462
H 2.1256477611940294 1.5207507462686571 1.4165402985074618
C 3.94864776119403 -1.4275492537313434 -3.522959701492538
H 4.81734776119403 -2.087049253731343 -3.615159701492538
H 3.4305477611940303 -1.3641492537313429 -4.484459701492538
H 4.26984776119403 -0.441449253731343 -3.176459701492538
C 2.60904776119403 -3.4296492537313434 -2.8992597014925376
H 1.9825477611940296 -3.869549253731343 -2.119359701492538
H 2.06294776119403 -3.373349253731343 -3.845759701492538
H 3.5215477611940305 -4.019849253731343 -3.0234597014925377
C 3.7281477611940304 -2.060049253731343 -1.156659701492538
H 3.9048477611940298 -1.032549253731343 -0.8295597014925382
H 3.12924776119403 -2.623249253731343 -0.4404597014925382
H 4.68244776119403 -2.5769492537313434 -1.3005597014925383
C 3.1110477611940297 3.755250746268656 2.588740298507462
H 3.40124776119403 4.809350746268656 2.534540298507462
H 2.9823477611940303 3.461750746268656 3.634840298507462
H 3.86514776119403 3.1392507462686563 2.091540298507462
C 1.99744776119403 3.9574507462686572 0.40494029850746194
H 2.67914776119403 3.230350746268657 -0.04295970149253803
H 1.03214776119403 3.981150746268657 -0.10175970149253821
H 2.4399477611940297 4.958250746268657 0.368240298507462
C 0.7418477611940297 4.4992507462686575 2.475440298507462
H -0.18475223880597014 4.424250746268656 1.901240298507462
H 0.57844776119403 4.189650746268656 3.511940298507462
H 1.1210477611940297 5.524350746268658 2.4432402985074617
N 3.00114776119403 -2.025349253731343 -2.490159701492538
N 1.7831477611940298 3.586450746268657 1.862540298507462
C -3.55075223880597 -3.8435492537313434 0.6444402985074619
H -2.62515223880597 -2.2736492537313433 1.7424402985074618
H -4.67195223880597 -1.3478492537313436 1.5102402985074619
H -4.83415223880597 -1.6757492537313432 -0.1945597014925382
H -3.7169522388059697 0.17335074626865676 -0.900559701492538
H -3.9132522388059705 -4.043149253731343 -0.34225970149253815
H -4.35435223880597 -3.9354492537313432 1.3449402985074619
H -2.78115223880597 -4.545049253731343 0.8904402985074619
H -5.24235223880597 1.138950746268657 1.5249402985074618
H -5.92805223880597 0.6501507462686567 -0.006059701492538094
H -4.89895223880597 2.059650746268657 0.08004029850746197
C 1.9292054997445849 -1.5461480961381113 3.6102118195813646
O 2.2327477828536666 -0.6154044858148255 4.340522652588311
O 1.5981544662638987 -1.4420706627355346 2.42353386613835
O 1.9061036729724834 -2.736170712497182 3.9448173523415155
O -3.1163859146367683 8.912836329177097 0.34479783980218137
H -2.910389976348519 8.378486521019887 1.1264648487203632
H -2.2513019232733993 9.226342059943866 0.0409791620300346
O 0.8157217210207741 -8.16811151399359 -2.863441493284735
H 0.9522642145322184 -8.329954037214154 -1.9178567524797245
H 1.6655458972383477 -7.813693711940911 -3.1653501473579
O 4.187366293585502 2.3453365741631633 -3.7628559225515206
H 5.1553234898251254 2.3143226378701067 -3.7302314087078234
H 3.996550175229812 3.1105219716236547 -4.325921159259397
O 10.131874321011715 -2.9049485918967957 2.412717949734566
H 10.832722313813898 -3.364136915981952 1.9259679821855016
H 9.325345003973954 -3.3834714824266126 2.1688158212125077
O -0.9566066369721613 4.78470842311055 6.505988564230153
H -1.1153751251586348 4.594580175138898 5.569179526388282
H -0.9480074537840792 5.752662345973889 6.5501836042456425
O -4.2871255175203995 0.3726683066444707 4.333056420921915
H -4.438310093543056 0.34945134865733163 5.289911453690554
H -5.161000282162213 0.1955794613284445 3.9536563933957583
O -7.734268821536082 -1.2059400661392399 -9.52382271830694
H -6.89691766485058 -0.7183265844624405 -9.517228039809577
H -7.463538768538174 -2.1354127276612314 -9.565628868416399
O -8.898670906405757 3.83863986506685 1.5527818807283982
H -8.404170112232583 4.330798806196633 0.8803118827893734
H -8.318533377743684 3.0940009661483066 1.7716775233420416
O 7.6264514573999 5.540385786483441 8.542559042123521
H 7.750536503415655 5.485957110843823 7.583075963834286
H 8.1633566421655 6.303119924238504 8.805106946275995
O -4.602845974847526 4.298754964603596 5.480061389811583
H -5.492252849182055 4.621656143951795 5.689005394659834
H -4.130705837467036 5.090346185807338 5.181014615063048
O 7.590272488637165 3.3584124244019513 -7.111091408438756
H 7.693369662664958 3.1108021345009056 -8.042234509118027
H 8.127138283355977 2.7072614674436113 -6.634919701999603
O 2.9844838341587887 -4.30064261818601 2.472928250259493
H 2.047156022814079 -4.369279164066064 2.7088794222196944
H 3.3503010752375384 -5.165097745569646 2.7134631191863745
O -2.4695703952165835 8.920155299210226 -4.9457917786423184
H -2.156346758490304 9.310234763286022 -5.775669071982908
H -2.421662626327061 9.650720015116573 -4.311014663543867
O -7.524616679975676 -1.779490887389092 -5.9476124748598735
H -7.018052518727638 -1.2870008799664618 -6.610796989175409
H -8.285076671001633 -2.122053803587554 -6.440880348123891
O -6.6822613077692035 -5.441762207951834 -0.3974074778388464
H -7.036754079960967 -5.395927177293852 -1.2980746646111754
H -6.721105064599377 -4.525774762015106 -0.0836876892668975
O -4.728672493380527 2.7963984138077382 -8.3320824034718
H -4.365239768441063 2.073011000196971 -7.799546337864406
H -4.088938413254979 3.5152273626355752 -8.218121035662415
O -1.1145769878845528 8.259572360024528 4.658846858494939
H -0.9133198263225033 8.219829083766019 5.605886131076719
H -2.0436981108574432 8.532998436558742 4.628284400859739
O -7.386752605244343 -3.362943021888599 4.876801376287311
H -8.296172994455887 -3.4282909765363225 4.5486984085931965
H -6.847185213363288 -3.674015724856044 4.134465369220967
O -2.9459663073370006 3.0341930745474994 0.5651840871618444
H -2.2944772538332 2.8199955513362935 1.2497633675340363
H -2.4761472787233103 3.6452677273252485 -0.02202949696665757
O -2.251282706409948 -2.2316108329528257 6.355780367721302
H -2.2395869651565206 -3.1839233288979853 6.177086560880565
H -3.122528084360969 -2.0783601301026726 6.751264448026586
C -5.048054097610152 -14.403475616972527 1.02812449580742
O -4.6371078553682334 -14.60870246734461 2.1334856961277513
O -5.459000339852068 -14.198248766600443 -0.07723670451291054
O 6.408235935391613 11.418747927265391 -12.622182568263398
H 6.318031017676242 11.524325602733315 -13.581184019859146
H 6.164660475559576 12.286861314150155 -12.267200755801017
O -3.4669353414976056 -6.687475431284138 -10.969022890720803
H -3.9875010857164397 -6.760909955687302 -10.155029012690033
H -4.133779666572779 -6.590727879712185 -11.665385225773374
O -9.299042696987637 14.9184110479483 -0.8612790144311377
H -9.938729666870554 14.792530496101858 -0.14439546452303098
H -9.330580548259805 15.870525288261131 -1.038608599189737
O -11.601167917000659 3.376592537139131 -13.271311312363549
H -11.654570766420328 3.41209030262618 -14.23819051951369
H -11.73689468153366 4.295543455187966 -12.995504496083374
O -5.4841756104384505 -13.015891008879008 -7.266138630811124
H -6.016797377160044 -13.067403611065473 -8.073992492800002
H -4.5701268869241645 -13.019517144264354 -7.587796409333687
O 14.337787606227945 10.519862957399999 0.17409211986039033
H 14.838183374991115 10.965241679701409 0.8742415505000773
H 13.413091708825975 10.7192359975015 0.38421073519146953
O -7.109922828179671 -19.10921963595724 -3.384067636053845
H -7.2785503871753585 -19.617517154295825 -4.191635426457842
H -6.99244533325226 -18.20061011082516 -3.699646015105446
O -1.9969195770860406 4.224821338295573 15.86633296255872
H -2.7411832646132632 4.2170439918816225 15.24586665951629
H -1.3236369064062237 4.75798408212687 15.417568126310897
O -17.50507522133419 -12.891844453182976 1.5924424344419532
H -16.734290488532057 -12.954966883565726 1.008598438701892
H -17.314628385254313 -12.121885742588493 2.149089118530562
O -13.431434528614286 1.1302715418766396 -9.463691892093848
H -13.450774411006481 2.0034787056600463 -9.883337665295958
H -14.364338673150616 0.9324320657507847 -9.291903233873406
O -3.3676276938387693 0.27460809451396617 8.18713985020178
H -2.4283150412117167 0.4976029647128213 8.103878902694996
H -3.6651464884945884 0.7950187825440782 8.948465816467591
O -13.62140212778766 -6.220163904456488 -3.9936879228072177
H -13.69674728987919 -6.124576946061254 -3.032358844481721
H -14.414950876143985 -6.717565710090121 -4.242351896946031
O -0.8789454095804117 -11.54670015409015 2.193094161640849
H -1.1829777488964326 -11.948068414614818 1.365184013742279
H -0.21288637453118398 -12.168030354406948 2.523663501271094
O -6.742963509931909 5.462028274126849 8.021580998760577
H -6.2532288161180025 5.722482361505219 7.227042796442462
H -7.201628205411282 4.650113849685601 7.758173313213916
O 7.122861671443375 -4.033926623721516 13.582593852202582
H 6.706693771422204 -3.1874199382873143 13.360787478517857
H 7.598869399793046 -4.279429083419429 12.775062348709582
O -0.9338602229272972 -21.89192464763724 -3.057918429724987
H -1.0401249567970892 -22.51138618681605 -3.7954430494590055
H -0.4425107831123114 -22.399628689790127 -2.394763637934169
O -7.708550578820473 10.252452674212885 12.1267233945023
H -8.13191764028342 10.099531532189316 12.984827591258407
H -8.242364435820189 9.733424001495816 11.506550880380104
O -0.3117926224499099 13.597820914977056 6.7706220695080495
H -0.27600978007497456 13.518979752145459 5.805494608425871
H -0.2876135012985719 12.680349275868497 7.081464643541602
O 14.690324802674667 -3.6336627483921755 -13.943242223607093
H 13.77816938931357 -3.3068534137041703 -13.954883423580913
H 15.200933330188322 -2.9169483072848674 -14.348903764597331
O 8.475133837447041 -0.872675763582067 3.808125733086347
H 8.716646682379565 -1.4207895944486113 3.046410477203021
H 8.380234782759084 0.016851565530858537 3.4357049435477434