194

C -5.0710522388059704 1.0783507462686561 0.47044029850746183
C -3.8153522388059704 0.1782507462686569 0.19534029850746193
C -4.11845223880597 -1.3219492537313435 0.5608402985074619
C -2.96945223880597 -2.3874492537313436 0.7034402985074619
C -2.52015223880597 0.7359507462686565 0.7384402985074618
C -2.20305223880597 0.7852507462686571 2.097440298507462
C -1.5755522388059702 1.205650746268656 -0.18965970149253808
C -0.9533522388059701 1.2695507462686564 2.508640298507462
H -2.91125223880597 0.4298507462686567 2.840840298507462
C -0.32655223880597006 1.6562507462686575 0.21554029850746192
H -1.7850522388059702 1.178550746268657 -1.2573597014925382
C 0.004447761194029898 1.6956507462686563 1.569740298507462
H -0.7158522388059702 1.2676507462686573 3.5705402985074617
H 0.3943477611940298 1.9193507462686572 -0.5551597014925382
C -1.76045223880597 -2.1592492537313435 -0.1734597014925381
C -0.5287522388059701 -1.936549253731343 0.464840298507462
C -1.8068522388059702 -2.121249253731343 -1.5681597014925381
C 0.6114477611940299 -1.614449253731343 -0.2582597014925381
H -0.4544522388059702 -1.954049253731343 1.5506402985074619
C -0.6479522388059701 -1.8270492537313432 -2.2998597014925384
H -2.74345223880597 -2.290549253731343 -2.092259701492538
C 0.5698477611940298 -1.5506492537313434 -1.6506597014925382
H 1.5072477611940298 -1.351949253731343 0.2991402985074618
H -0.7173522388059701 -1.7640492537313435 -3.3840597014925375
C 1.7791477611940298 -1.082849253731343 -2.4255597014925376
H 1.4739477611940297 -0.9102492537313429 -3.464259701492538
H 2.1252477611940295 -0.1337492537313434 -2.0010597014925384
C 1.3965477611940298 2.0964507462686566 1.997440298507462
H 1.51704776119403 1.8448507462686567 3.057640298507462
H 2.1256477611940294 1.5207507462686571 1.4165402985074618
C 3.94864776119403 -1.4275492537313434 -3.522959701492538
H 4.81734776119403 -2.087049253731343 -3.615159701492538
H 3.4305477611940303 -1.3641492537313429 -4.484459701492538
H 4.26984776119403 -0.441449253731343 -3.176459701492538
C 2.60904776119403 -3.4296492537313434 -2.8992597014925376
H 1.9825477611940296 -3.869549253731343 -2.119359701492538
H 2.06294776119403 -3.373349253731343 -3.845759701492538
H 3.5215477611940305 -4.019849253731343 -3.0234597014925377
C 3.7281477611940304 -2.060049253731343 -1.156659701492538
H 3.9048477611940298 -1.032549253731343 -0.8295597014925382
H 3.12924776119403 -2.623249253731343 -0.4404597014925382
H 4.68244776119403 -2.5769492537313434 -1.3005597014925383
C 3.1110477611940297 3.755250746268656 2.588740298507462
H 3.40124776119403 4.809350746268656 2.534540298507462
H 2.9823477611940303 3.461750746268656 3.634840298507462
H 3.86514776119403 3.1392507462686563 2.091540298507462
C 1.99744776119403 3.9574507462686572 0.40494029850746194
H 2.67914776119403 3.230350746268657 -0.04295970149253803
H 1.03214776119403 3.981150746268657 -0.10175970149253821
H 2.4399477611940297 4.958250746268657 0.368240298507462
C 0.7418477611940297 4.4992507462686575 2.475440298507462
H -0.18475223880597014 4.424250746268656 1.901240298507462
H 0.57844776119403 4.189650746268656 3.511940298507462
H 1.1210477611940297 5.524350746268658 2.4432402985074617
N 3.00114776119403 -2.025349253731343 -2.490159701492538
N 1.7831477611940298 3.586450746268657 1.862540298507462
C -3.55075223880597 -3.8435492537313434 0.6444402985074619
H -2.62515223880597 -2.2736492537313433 1.7424402985074618
H -4.67195223880597 -1.3478492537313436 1.5102402985074619
H -4.83415223880597 -1.6757492537313432 -0.1945597014925382
H -3.7169522388059697 0.17335074626865676 -0.900559701492538
H -3.9132522388059705 -4.043149253731343 -0.34225970149253815
H -4.35435223880597 -3.9354492537313432 1.3449402985074619
H -2.78115223880597 -4.545049253731343 0.8904402985074619
H -5.24235223880597 1.138950746268657 1.5249402985074618
H -5.92805223880597 0.6501507462686567 -0.006059701492538094
H -4.89895223880597 2.059650746268657 0.08004029850746197
C 2.5429659315236353 -0.8426027887600501 3.8973621834729664
O 2.4162962376705495 -0.8544656842488051 5.112100656960073
O 2.5164142613617955 -1.8408897476002184 3.1684248605697793
O 2.7173096511520645 0.1695391981634169 3.2090154320948976
O 3.7105961588428977 6.340303975772791 -3.1777738209986737
H 4.299660015477413 6.224226101080068 -3.938363760922738
H 4.233919050812292 6.866319124573876 -2.5545538291237646
O -0.3462257728023177 -10.059710944955985 0.34120604941590793
H 0.24189567926992783 -9.74971443343337 -0.3637639338856835
H -0.7983845085366603 -9.256104095428391 0.6390826235056741
O -7.8658052942959715 -8.019685077644699 -5.797439935949274
H -7.34374606114026 -8.373325079739818 -5.061668053573332
H -8.54954395627513 -8.690696622466069 -5.9430658029214225
O 8.02320024658502 3.26183841565633 -1.8952043258334472
H 7.086274500893372 3.341163850864689 -2.1293943753427205
H 8.351362010149366 4.17287505643783 -1.9310378351214907
O -8.545689992381345 3.454781887500714 5.749116698579714
H -8.492592472425224 2.5564302260069875 5.389794694569425
H -9.315457455433558 3.426602473640463 6.337016279937492
O -3.5565285643411415 -7.815459889138803 -2.787716408747336
H -4.240668862293655 -8.422358290107242 -2.4674138322366264
H -3.3948564709449416 -7.226826118491889 -2.03516450849667
O 6.013435035901679 -0.42674711986193614 0.9220687508663041
H 6.747979065911348 -0.47701528756393896 0.2920802301827603
H 6.379762268907521 -0.7978197318214042 1.7388131535479885
O -6.872172249564018 6.368647424934544 -2.76232209668628
H -6.760349282799073 6.358787479034431 -1.7998431293988206
H -6.682726655250225 5.456625249249337 -3.0293199658791172
O -7.750019999480407 -2.907526040287524 -3.1527131938508877
H -6.907397031499467 -2.607701069706534 -3.5256191843459486
H -7.985117092162668 -2.2139947562643005 -2.5181222552191995
O -3.207506587077928 7.5973814989473105 -2.0063882982320713
H -3.4396662814490053 8.520556096839112 -1.8252311978555138
H -3.3329500128256133 7.152986487234376 -1.1544851553799365
O -3.637491871027869 7.76618287049956 6.093545874678375
H -4.067759560742067 6.927282344466056 5.869753606025682
H -3.292345178056605 8.085538388391585 5.246286907288289
O 1.0439043140393411 1.6389664987951966 -5.826232981003663
H 0.0928267389583719 1.6944617862492657 -5.649204519595634
H 1.0938515391699648 1.3969689349363308 -6.763198507631045
O -1.0873768181786714 6.186353623027901 -7.393463238301452
H -1.428408039053612 5.282156485399174 -7.464825690561496
H -1.5144156492048744 6.656032733299476 -8.125584344724613
O -0.18991585922537046 -7.954180914548607 -3.549987243407572
H 0.06225212528706914 -7.4534808507691235 -2.759621435304668
H 0.5449878045406709 -8.572249640002727 -3.6798702673128036
O 3.946812247084064 10.300312658179415 -1.4564192551118729
H 3.085461522619544 9.968023966322102 -1.7507430761461253
H 4.530409508531598 9.529699498321694 -1.5237359587227801
O 0.7410656429348886 0.6733769155367271 7.4577572629083
H 0.9210549153067067 0.3010037017813194 8.334061666873346
H 1.2049164464169577 0.07754586264974606 6.850476658224907
O 1.4075887554585798 -5.669639624749186 -5.261905729323889
H 1.3985290826157373 -6.384522479722181 -5.9159911846687105
H 0.6655944777938256 -5.8797989891061935 -4.6751864797795974
O -9.390097200486776 -3.330698872241879 4.9853977846475
H -10.03708731531273 -3.2406468812237743 4.269673125905625
H -9.844744739580364 -3.8763005451795602 5.644621854280695
O -2.411511414541854 3.960816858162608 10.524470247805366
H -1.8007212174131189 4.541875018815344 10.046689852717517
H -3.2799905486281347 4.178897589600126 10.154136975559378
O 0.9234439270359998 4.187202164899479 9.867240790980654
H 0.304830488702029 4.067987348845774 10.60349658786507
H 0.7448509677566939 3.432067371645436 9.286863376522586
C -11.696782149693064 10.24445120206935 1.1119833231849818
O -11.085861691313166 11.21308499408546 1.4603265846346467
O -12.307702608072963 9.275817410053243 0.7636400617353174
O -17.75769272770996 -5.092171628683699 8.13543946214606
H -18.104732835517346 -5.564409119886359 8.90714035781462
H -17.01783804745421 -5.642459461803816 7.837512798143612
O -9.709956585148072 -1.7442902606921944 -17.82425798598561
H -9.592967605493664 -2.5830702877149374 -17.353376895043162
H -10.515668902079037 -1.369395274181727 -17.43793770987387
O -5.323608550449249 -1.4431984839051952 10.077110446664848
H -5.498191453878553 -2.349880023572 9.783143182573033
H -4.58664141352084 -1.153824851843053 9.518447503151762
O 11.435246632268482 4.287162589334151 -7.5511793477432265
H 11.730049118793431 4.298676075277906 -6.628180815523305
H 11.948755715965643 4.994325488229227 -7.9697375870443
O 3.024432209743288 9.337557700490347 0.23115106602649327
H 3.3862899233349966 8.438659024847059 0.228408268016419
H 2.0907838109322774 9.214720271776052 0.002735703573578885
O 0.4335782969678057 -9.384198748137159 -13.69062313650614
H 0.05094618205160639 -10.119822518583968 -14.192038822228458
H 1.373940063692901 -9.608970504669246 -13.62613011791391
O 6.268774370886618 17.97903490182144 1.2939332939965427
H 6.492597554638408 17.12880068739225 0.8865362886943562
H 7.095969662409864 18.26393809701236 1.71051469462765
O 11.190567486547458 -2.5992756799843995 5.4213488559994305
H 11.017407921047656 -2.3939246020295935 4.490320362043031
H 12.157219478162304 -2.6378219681704325 5.47666662054328
O 5.942023914088279 -9.661903982891818 -8.254013652748585
H 5.35835107527405 -10.28538290533043 -8.711798981702373
H 5.831699084500287 -9.882841961739103 -7.317009498126388
O -1.376688744987415 -14.913588462601268 6.103320305448698
H -1.5890347884539051 -15.264429520832454 6.981265102450963
H -1.5409905281520344 -13.962157512383317 6.185454435481806
O -0.3330377307611254 -7.4750108429468085 -17.138322465098355
H -1.1229388241657468 -8.033855483799588 -17.190440474733304
H -0.6847260270297069 -6.572083784251147 -17.138207387274658
O -4.759518222626323 -20.060681221195125 -7.643069194596388
H -5.070117525743656 -19.9224272157268 -8.550472776127226
H -4.861529216229165 -19.192066082389612 -7.225860083811355
O -0.05954605475312924 15.01299692805102 11.472243996809796
H -0.14006803557852088 14.456713129046552 12.261567696231722
H 0.8960428185412965 15.06841032247192 11.321442122634963
O -14.050549291194411 3.3675217660480783 0.5883479023670953
H -13.116580805323217 3.553039466486173 0.40875556644033295
H -14.385168652229295 4.194912615524704 0.9657286248781334
O -10.883751536386416 -5.8881878025087735 -7.34518811058671
H -11.674976911166503 -5.749467023376475 -7.887116434852052
H -10.758132676738267 -6.848950321367729 -7.356015333522018
O -7.499781146820165 -5.5497956940057644 -0.023985855005058232
H -8.235547790280279 -5.43653959737595 0.5963268563330342
H -7.306656966200307 -6.498647312338765 0.012696586935962983
O -11.055145080573908 -7.979036784909816 2.193190381422234
H -11.993661323551278 -7.772765150326828 2.3181168851518428
H -10.636077291325645 -7.111115909101536 2.0929033650603985
O 15.7529012700689 -1.4190098078969697 11.173847631435274
H 15.235878941926558 -2.04440458187789 10.6441905293592
H 16.55156540597363 -1.9151450362104372 11.408256201129072
O 5.714893983982849 14.312357371096674 6.946385010720503
H 5.851445549856189 13.720364999005966 6.191490277566298
H 6.148523693112834 13.856072242184325 7.683087868590135
O -14.446308791008683 -5.5704735070451425 -3.3898218299459213
H -14.201942783455014 -6.454611402840267 -3.0774874058565302
H -14.264573886697562 -4.995708574895454 -2.6311521774449176