194

C -5.0710522388059704 1.0783507462686561 0.47044029850746183
C -3.8153522388059704 0.1782507462686569 0.19534029850746193
C -4.11845223880597 -1.3219492537313435 0.5608402985074619
C -2.96945223880597 -2.3874492537313436 0.7034402985074619
C -2.52015223880597 0.7359507462686565 0.7384402985074618
C -2.20305223880597 0.7852507462686571 2.097440298507462
C -1.5755522388059702 1.205650746268656 -0.18965970149253808
C -0.9533522388059701 1.2695507462686564 2.508640298507462
H -2.91125223880597 0.4298507462686567 2.840840298507462
C -0.32655223880597006 1.6562507462686575 0.21554029850746192
H -1.7850522388059702 1.178550746268657 -1.2573597014925382
C 0.004447761194029898 1.6956507462686563 1.569740298507462
H -0.7158522388059702 1.2676507462686573 3.5705402985074617
H 0.3943477611940298 1.9193507462686572 -0.5551597014925382
C -1.76045223880597 -2.1592492537313435 -0.1734597014925381
C -0.5287522388059701 -1.936549253731343 0.464840298507462
C -1.8068522388059702 -2.121249253731343 -1.5681597014925381
C 0.6114477611940299 -1.614449253731343 -0.2582597014925381
H -0.4544522388059702 -1.954049253731343 1.5506402985074619
C -0.6479522388059701 -1.8270492537313432 -2.2998597014925384
H -2.74345223880597 -2.290549253731343 -2.092259701492538
C 0.5698477611940298 -1.5506492537313434 -1.6506597014925382
H 1.5072477611940298 -1.351949253731343 0.2991402985074618
H -0.7173522388059701 -1.7640492537313435 -3.3840597014925375
C 1.7791477611940298 -1.082849253731343 -2.4255597014925376
H 1.4739477611940297 -0.9102492537313429 -3.464259701492538
H 2.1252477611940295 -0.1337492537313434 -2.0010597014925384
C 1.3965477611940298 2.0964507462686566 1.997440298507462
H 1.51704776119403 1.8448507462686567 3.057640298507462
H 2.1256477611940294 1.5207507462686571 1.4165402985074618
C 3.94864776119403 -1.4275492537313434 -3.522959701492538
H 4.81734776119403 -2.087049253731343 -3.615159701492538
H 3.4305477611940303 -1.3641492537313429 -4.484459701492538
H 4.26984776119403 -0.441449253731343 -3.176459701492538
C 2.60904776119403 -3.4296492537313434 -2.8992597014925376
H 1.9825477611940296 -3.869549253731343 -2.119359701492538
H 2.06294776119403 -3.373349253731343 -3.845759701492538
H 3.5215477611940305 -4.019849253731343 -3.0234597014925377
C 3.7281477611940304 -2.060049253731343 -1.156659701492538
H 3.9048477611940298 -1.032549253731343 -0.8295597014925382
H 3.12924776119403 -2.623249253731343 -0.4404597014925382
H 4.68244776119403 -2.5769492537313434 -1.3005597014925383
C 3.1110477611940297 3.755250746268656 2.588740298507462
H 3.40124776119403 4.809350746268656 2.534540298507462
H 2.9823477611940303 3.461750746268656 3.634840298507462
H 3.86514776119403 3.1392507462686563 2.091540298507462
C 1.99744776119403 3.9574507462686572 0.40494029850746194
H 2.67914776119403 3.230350746268657 -0.04295970149253803
H 1.03214776119403 3.981150746268657 -0.10175970149253821
H 2.4399477611940297 4.958250746268657 0.368240298507462
C 0.7418477611940297 4.4992507462686575 2.475440298507462
H -0.18475223880597014 4.424250746268656 1.901240298507462
H 0.57844776119403 4.189650746268656 3.511940298507462
H 1.1210477611940297 5.524350746268658 2.4432402985074617
N 3.00114776119403 -2.025349253731343 -2.490159701492538
N 1.7831477611940298 3.586450746268657 1.862540298507462
C -3.55075223880597 -3.8435492537313434 0.6444402985074619
H -2.62515223880597 -2.2736492537313433 1.7424402985074618
H -4.67195223880597 -1.3478492537313436 1.5102402985074619
H -4.83415223880597 -1.6757492537313432 -0.1945597014925382
H -3.7169522388059697 0.17335074626865676 -0.900559701492538
H -3.9132522388059705 -4.043149253731343 -0.34225970149253815
H -4.35435223880597 -3.9354492537313432 1.3449402985074619
H -2.78115223880597 -4.545049253731343 0.8904402985074619
H -5.24235223880597 1.138950746268657 1.5249402985074618
H -5.92805223880597 0.6501507462686567 -0.006059701492538094
H -4.89895223880597 2.059650746268657 0.08004029850746197
C 2.1719819962247477 3.0734978661830348 -2.863946970934543
O 2.097735533042336 4.242553843262522 -3.209737490989136
O 2.9604040462455865 2.628160756002067 -2.022105540832292
O 1.4701758299528112 2.154846906028277 -3.302349642903395
O -4.069353578945471 7.422164659554446 -7.2636412837705455
H -4.315685063393772 7.253822656213834 -6.341714428439405
H -3.4959940828610008 8.201758564812359 -7.214101648785228
O 0.15913712728262164 -3.6193359647241876 -4.58337074278513
H 0.5474156067995963 -2.892168328904259 -5.0927177842608256
H -0.7961683473509715 -3.486989862076547 -4.67738086750084
O -6.952598758350761 -5.284971780187838 -6.671457257449486
H -7.629347677477836 -4.648182441235576 -6.946189117919067
H -6.428366939405791 -4.8010976268362455 -6.015706734747501
O 3.057666933231467 9.85659149585504 1.0447624096281751
H 2.1356711970980307 9.558912314604221 1.0614454699471754
H 3.0936529946209013 10.545191578748705 1.7255684565494076
O -3.546185483474778 -5.069209744496543 4.365736963339847
H -3.8883018024294174 -4.193978997082194 4.6021580283603924
H -4.08750138770447 -5.33505945611037 3.607276043474602
O 1.5579193267715963 -2.4035197166962554 7.323875009813339
H 1.178442842061409 -2.9668457760367746 8.014981879494059
H 2.4774547234710527 -2.2782875456922578 7.602682294263364
O -1.512016182600651 4.146069931972175 -3.163799825009126
H -2.2007008656208678 3.8244394214408315 -3.7648277602739455
H -1.906869755626731 4.052391147882878 -2.283869779164521
O -6.258298244542743 6.007681799651083 6.648327154992106
H -6.393665639655658 5.904950234067837 7.60231313532576
H -6.958271362222736 5.466650181939946 6.252998978078014
O 1.1405574060538513 7.961292403633713 -1.4256987353519985
H 1.6357757577489103 8.693999404295896 -1.0296348614313184
H 0.4254368525170735 8.39810374285793 -1.912279039242732
O 2.948328583613945 -2.813897494830782 4.73201693448729
H 3.393500343133727 -2.541579855799977 3.9155412368093065
H 2.3456102158654426 -2.0803279741230716 4.9258422985840475
O -6.381939367905003 5.567108522810601 -7.109307801486604
H -6.249133834720694 4.685804306172905 -7.4896141582468445
H -5.746550938996619 6.124629878263461 -7.583030744696389
O 7.1304328240022095 -1.2410395168792898 -4.3341066141994
H 7.459025443306711 -1.2973161805210536 -3.4242565251363937
H 6.366297095076952 -0.6485476737223919 -4.2707666752003455
O -0.6124465246739281 -6.778040486522391 0.7270359235433915
H -0.5114040131833606 -6.879340144673008 -0.23134612294446283
H 0.14408909014405402 -7.2594046656109485 1.0943291781811209
O -6.044551905952928 -6.664404595206202 9.259860067208347
H -5.9937938074017065 -6.571202624880287 10.223034176629291
H -6.79802443672484 -7.25778535546818 9.121511366372062
O -2.7773361280329807 3.3740735212895685 3.0944708844701005
H -2.4946235565060997 3.185743327631701 2.1869618228307965
H -2.829997183770381 2.4999798961988993 3.5093794190707683
O -6.637178743629759 -5.556639396367106 4.350126637293992
H -6.805007530330567 -5.675815203386724 5.29701521694619
H -7.5106649839132436 -5.657930908127491 3.943034802469567
O -2.5574316269971575 1.3026554533728927 -9.649336266967293
H -2.561380117047856 0.8134588132645978 -10.48578017640359
H -1.6193597721308808 1.4856085808088777 -9.489613718248794
O -0.37039562795437986 2.174032109062817 5.66475209379904
H -0.26146288089914 2.324032389086911 6.615857203401387
H -1.0548109276871016 2.808734321571405 5.404577646113507
O -6.201524651260571 -4.706795208168469 -2.6015961161334986
H -6.059771698982694 -3.9203312135239736 -2.0535561152682975
H -6.467431019305139 -4.348000009254771 -3.4615506224707966
O -7.936735878675286 1.266668204177336 -6.7420857358327195
H -8.087767141569225 1.5040458488761934 -7.669344474441252
H -8.480607457885016 0.47540024214913723 -6.611469267132736
C 2.0810146613448035 -12.386712104299253 15.434984328611232
O 1.8641394956828723 -12.921650307962233 14.386354490164447
O 2.2978898270067356 -11.851773900636271 16.48361416705802
O -15.049394229331499 -3.646129094634736 -3.8951714688914865
H -14.864741086133009 -4.327935282640813 -4.558504639781908
H -15.805858063688957 -3.1630554036663714 -4.260362132385794
O -4.036909851506481 2.847428155311138 -13.379282861989616
H -3.4183156207062573 2.4664957392252247 -14.020530886466599
H -3.562484635767285 2.79380064848672 -12.536070700382222
O 11.921034358636247 -3.6693330083952023 -8.05352179134652
H 11.4591236653382 -3.146836631366651 -7.380763733565747
H 11.76189355024709 -3.183898301310727 -8.876922843424458
O -7.994891237830684 -6.87661640838582 19.18964909399044
H -8.371302105047793 -7.76031865745796 19.3175261870357
H -7.635199347824686 -6.903320064272601 18.290276755453064
O 15.830496573012905 -9.387479475946671 3.7235161013685705
H 15.457893444875838 -9.006305422207276 2.9142938781453394
H 15.256586790028384 -9.049405986662931 4.42728866487057
O 11.467790442967893 10.100827335203466 7.124951998707904
H 12.149957329104849 10.384472614217142 6.497926439379206
H 11.39663014292163 10.842336213639545 7.744679954506088
O -8.181165279420018 -6.866952725852162 -9.504196252973477
H -7.770309551548712 -7.310221264971538 -8.746780957377782
H -8.267746477047949 -5.945435261623821 -9.21736668051017
O -5.494549286104391 10.915724091929238 11.823857542052696
H -5.446448816898414 10.904496255872331 12.791601122480715
H -4.579890726130574 10.763834316675618 11.542270683090795
O 4.851057308847512 -11.85467609131657 -3.6486896149470116
H 5.20578353165023 -11.339324865123988 -4.3886556799918335
H 3.9879086848950176 -11.450284316631103 -3.4743230761970185
O 9.421607442691652 3.834445430730593 -15.348709812810903
H 8.671177789248674 4.4013033929735075 -15.582150903399636
H 10.070768492202008 4.006008864376589 -16.0473641367324
O -13.466187269782809 5.0388445963234325 9.96914759140516
H -13.936104070235158 5.8332526205036 9.674085820464244
H -13.801664937308237 4.339275793199988 9.388613209487836
O 16.126878926257803 -5.390477840358342 19.278832854551613
H 15.873334280540703 -5.494740068824342 20.208247647442008
H 15.404108107671494 -4.870920408814031 18.895917245797996
O 3.9569106912642544 -18.063830018006673 0.7644656163386965
H 4.020120037655934 -17.75962406787421 -0.1533746068661621
H 4.871631327660323 -18.037861867427466 1.0831719965802342
O 2.3440912185876908 11.807106506512753 13.146907004543518
H 2.6844078353319993 11.788168692792638 12.239827450987596
H 2.446225269875836 10.893858150359005 13.454328571532482
O -15.193299851056691 -2.037509498097638 -7.350273430130816
H -15.997279045042662 -2.578383021664198 -7.3566486981535135
H -14.616284773801821 -2.4682407030242475 -7.998722482889033
O 13.300148350968367 13.221974777308262 0.3486664792729677
H 12.39058584790825 12.978192105229912 0.5772127956321551
H 13.595476709284132 12.505301682735638 -0.23281677980695648
O 5.895139121268912 5.281544682538842 -19.455229425286706
H 6.748923228894538 5.599468531311625 -19.78529681362947
H 5.322495999511936 5.294552298921977 -20.236812818994924
O 12.207213333067486 -14.693167354100732 1.392199900162438
H 12.053084392156954 -14.696598185748567 0.43553911604509865
H 12.947195912875182 -14.078340497017113 1.5078530959238357
O -0.6863617063282899 17.097017088361103 -4.964447512565632
H -0.7874220306670843 17.028953331870195 -4.0031351321206055
H 0.22920644623587183 17.391248894102095 -5.083294249166351
O 7.346410643680815 -3.7983548832781344 -7.742252190743219
H 7.084161000814028 -2.8792565311824565 -7.5827194326925484
H 7.546986453835971 -3.8233962310637777 -8.689935798062498