194

C -5.0710522388059704 1.0783507462686561 0.47044029850746183
C -3.8153522388059704 0.1782507462686569 0.19534029850746193
C -4.11845223880597 -1.3219492537313435 0.5608402985074619
C -2.96945223880597 -2.3874492537313436 0.7034402985074619
C -2.52015223880597 0.7359507462686565 0.7384402985074618
C -2.20305223880597 0.7852507462686571 2.097440298507462
C -1.5755522388059702 1.205650746268656 -0.18965970149253808
C -0.9533522388059701 1.2695507462686564 2.508640298507462
H -2.91125223880597 0.4298507462686567 2.840840298507462
C -0.32655223880597006 1.6562507462686575 0.21554029850746192
H -1.7850522388059702 1.178550746268657 -1.2573597014925382
C 0.004447761194029898 1.6956507462686563 1.569740298507462
H -0.7158522388059702 1.2676507462686573 3.5705402985074617
H 0.3943477611940298 1.9193507462686572 -0.5551597014925382
C -1.76045223880597 -2.1592492537313435 -0.1734597014925381
C -0.5287522388059701 -1.936549253731343 0.464840298507462
C -1.8068522388059702 -2.121249253731343 -1.5681597014925381
C 0.6114477611940299 -1.614449253731343 -0.2582597014925381
H -0.4544522388059702 -1.954049253731343 1.5506402985074619
C -0.6479522388059701 -1.8270492537313432 -2.2998597014925384
H -2.74345223880597 -2.290549253731343 -2.092259701492538
C 0.5698477611940298 -1.5506492537313434 -1.6506597014925382
H 1.5072477611940298 -1.351949253731343 0.2991402985074618
H -0.7173522388059701 -1.7640492537313435 -3.3840597014925375
C 1.7791477611940298 -1.082849253731343 -2.4255597014925376
H 1.4739477611940297 -0.9102492537313429 -3.464259701492538
H 2.1252477611940295 -0.1337492537313434 -2.0010597014925384
C 1.3965477611940298 2.0964507462686566 1.997440298507462
H 1.51704776119403 1.8448507462686567 3.057640298507462
H 2.1256477611940294 1.5207507462686571 1.4165402985074618
C 3.94864776119403 -1.4275492537313434 -3.522959701492538
H 4.81734776119403 -2.087049253731343 -3.615159701492538
H 3.4305477611940303 -1.3641492537313429 -4.484459701492538
H 4.26984776119403 -0.441449253731343 -3.176459701492538
C 2.60904776119403 -3.4296492537313434 -2.8992597014925376
H 1.9825477611940296 -3.869549253731343 -2.119359701492538
H 2.06294776119403 -3.373349253731343 -3.845759701492538
H 3.5215477611940305 -4.019849253731343 -3.0234597014925377
C 3.7281477611940304 -2.060049253731343 -1.156659701492538
H 3.9048477611940298 -1.032549253731343 -0.8295597014925382
H 3.12924776119403 -2.623249253731343 -0.4404597014925382
H 4.68244776119403 -2.5769492537313434 -1.3005597014925383
C 3.1110477611940297 3.755250746268656 2.588740298507462
H 3.40124776119403 4.809350746268656 2.534540298507462
H 2.9823477611940303 3.461750746268656 3.634840298507462
H 3.86514776119403 3.1392507462686563 2.091540298507462
C 1.99744776119403 3.9574507462686572 0.40494029850746194
H 2.67914776119403 3.230350746268657 -0.04295970149253803
H 1.03214776119403 3.981150746268657 -0.10175970149253821
H 2.4399477611940297 4.958250746268657 0.368240298507462
C 0.7418477611940297 4.4992507462686575 2.475440298507462
H -0.18475223880597014 4.424250746268656 1.901240298507462
H 0.57844776119403 4.189650746268656 3.511940298507462
H 1.1210477611940297 5.524350746268658 2.4432402985074617
N 3.00114776119403 -2.025349253731343 -2.490159701492538
N 1.7831477611940298 3.586450746268657 1.862540298507462
C -3.55075223880597 -3.8435492537313434 0.6444402985074619
H -2.62515223880597 -2.2736492537313433 1.7424402985074618
H -4.67195223880597 -1.3478492537313436 1.5102402985074619
H -4.83415223880597 -1.6757492537313432 -0.1945597014925382
H -3.7169522388059697 0.17335074626865676 -0.900559701492538
H -3.9132522388059705 -4.043149253731343 -0.34225970149253815
H -4.35435223880597 -3.9354492537313432 1.3449402985074619
H -2.78115223880597 -4.545049253731343 0.8904402985074619
H -5.24235223880597 1.138950746268657 1.5249402985074618
H -5.92805223880597 0.6501507462686567 -0.006059701492538094
H -4.89895223880597 2.059650746268657 0.08004029850746197
C 1.6473942504921772 -2.531371588223731 3.5379863260702735
O 0.7995384719004959 -1.6774124225588758 3.3290130725528
O 1.517860199248991 -3.73752224238465 3.2991286422170747
O 2.7661645877058856 -2.321559589514786 4.020666595159952
O -2.484528609091867 6.145109190294566 4.232474703205254
H -2.5064931413255347 6.260647122609019 3.270634850412567
H -1.5549607208307945 5.9492331168871395 4.423519329615783
O 8.230271235912095 -3.4616127289455885 5.007327715268655
H 8.146265076391385 -3.480640065565349 4.042160225905416
H 7.328854740460188 -3.28753913683718 5.317341635210446
O 1.0583482951139005 -7.354998015423694 -4.655621823414584
H 1.5326584006259387 -6.654809592824757 -5.128626531179288
H 1.2947278031610308 -7.211646739037656 -3.7268930772061504
O 6.53178027173285 -1.9348240227377989 2.6888065443270612
H 6.465984341399432 -1.732775569637886 1.7433888191645317
H 5.720395391617703 -2.4290219455084725 2.8795548962194877
O 5.26764381478846 3.0861135788154703 -6.7587022745358505
H 4.854455912861893 3.1614571468935355 -5.885451759877665
H 6.1829832645608995 3.3669517310596673 -6.609552791686079
O -4.312028633301777 7.368206289809093 -2.0300385759178203
H -3.535987589174239 7.890433030406553 -1.7770427535523188
H -5.014548257619315 7.696307793992532 -1.4488522678364015
O -5.295985408580971 -4.314011684577511 6.467211652178288
H -5.362680884946731 -4.336619698204105 5.500770785879576
H -5.416566241329452 -5.238347568540851 6.7318347439359645
O -1.3587777065522406 0.31796969946519543 8.992191236347406
H -1.5946766397358192 -0.6111183785040701 9.134016458357546
H -1.2693039328009164 0.39251988296590595 8.03021480303383
O 2.4355082560629286 -4.5411147475684706 6.125250024886867
H 2.1468907435126985 -4.763905379112096 7.023042663999993
H 2.882542721749811 -5.343738370446967 5.817163266350512
O -1.800417215412784 9.075377015020146 -7.267261843523583
H -1.7530650168805448 9.078863089245406 -6.299422511051161
H -0.8727777577867006 9.060157388522253 -7.546931906141035
O 9.94013855225561 -1.3336210981814114 5.375675319910197
H 10.08543277603427 -0.5633782486931745 5.945397092575416
H 9.202903426351785 -1.800560548243301 5.796880570838377
O -0.7566808407259322 8.516287178754624 5.891184228226302
H -0.39568049904159774 8.909538170162438 6.699886749528522
H -1.3466840657379489 9.200707961159004 5.541289484927129
O 4.651137261251678 3.124065532849486 8.105763887923779
H 5.311684467425086 3.6486265742698403 7.628814772041905
H 5.129359726712068 2.32049748686793 8.359818239011044
O 3.2089929345554626 5.083877981636849 -7.241162003696569
H 3.139548124901242 5.070446917893176 -8.207580330219201
H 4.155217229800137 4.960344403373314 -7.072754811361664
O -1.5563106441979555 0.28297362437366225 -4.6110347273299475
H -1.5135363201807799 1.1009715303476806 -4.093331009044096
H -0.6281948520918106 0.07288447400087694 -4.793861338190687
O 8.779836643056667 0.501169060657042 -1.956005174803316
H 8.326524116974086 -0.08089605793227683 -2.584237065364621
H 9.239154095169834 -0.1097551898188085 -1.3603870230779098
O 10.28716149931066 3.343864905254981 -6.799010756412702
H 10.585907319347577 4.259941634112006 -6.696435326815328
H 10.536688495256794 2.921348828179394 -5.963440060895708
O 3.457795268241515 -0.7397402829719777 10.561747693760388
H 2.744004425988674 -1.1415381466611274 10.04403303571909
H 3.5557602060487126 -1.3307019344070272 11.323409785368993
O -3.490260003308574 2.229055786874142 7.173916658628797
H -3.4380071280592803 1.770112051286695 8.025742721562553
H -4.311034604087486 2.7406453410888947 7.233642089012913
O -4.341418480862991 5.505564294238679 -7.119007341336516
H -4.104293836811865 6.213410313365438 -7.736820641039612
H -3.5076174766407124 5.0343276658889815 -6.971786861241092
C 8.387703090013227 -4.2515838129991605 -14.614050497888192
O 7.748261366560166 -4.890357926345577 -15.398843573625918
O 9.027144813466288 -3.6128096996527423 -13.829257422150466
O -11.159685878678523 4.473043543416971 17.19215763164211
H -11.668674217323757 5.247746739931422 17.47452828403619
H -10.912510030797531 4.039863887268369 18.022953292453654
O -17.54458391971118 -6.467547190362931 7.025198923016454
H -18.006628730583557 -6.791114940849363 6.2372992717339715
H -17.831264407131997 -5.545147718922829 7.102370533853485
O -13.187756517393444 4.288228103490296 14.94527893975309
H -13.110258470411015 4.612306900907067 15.855187914694433
H -12.754148666990265 4.973598581810835 14.414983282769732
O 18.051431926648867 2.867646969772765 -12.816692672876242
H 18.232490794132307 2.5483451026891757 -13.713482147102244
H 17.197280301598873 3.318194382087249 -12.896655007641911
O -7.521106716997189 -18.7930106036305 -0.14845095716257983
H -8.290593162899828 -18.947961442544894 -0.716648285554617
H -7.643838881871478 -17.885945242508583 0.16956034870253855
O -15.19750385407141 -6.944756203439184 -6.9454644214951795
H -14.523048979602343 -6.86411599852228 -7.636532534314658
H -15.080018511299714 -7.845353415436436 -6.6077014864703365
O -6.236581219463539 -1.30691252264553 -19.30426686429276
H -5.8661371842839465 -1.9041766998226892 -18.637173110491428
H -5.984561289610251 -0.4242289307613145 -18.993916133868094
O 8.346191483355886 -8.764304101426493 -1.0317878452089113
H 8.309745322757195 -8.761528553120225 -2.0001014982207934
H 7.593687795250295 -9.31620703832586 -0.7708217709208244
O 1.2762014857434945 1.7120344456306593 -8.72505124959569
H 0.9378941850919895 1.7122483881696575 -9.633079597971712
H 1.4989860090090208 0.7838161899464284 -8.558498344163587
O 9.993869890699166 7.374245398587075 -4.3819463969608785
H 10.208219226138738 7.384431024950256 -5.326889766857829
H 10.204236950629568 6.470127875480893 -4.103955122262226
O -2.895698844337564 7.316553996360228 -9.568977164317252
H -2.011552041274678 7.008920390597804 -9.819203765899273
H -2.7465961050808336 7.81978025514358 -8.75442596892371
O 9.998297780356685 -11.566896696650746 -8.959340774910233
H 10.07197247911177 -12.53235164312856 -8.921444310894904
H 9.483032594898512 -11.402861170432512 -9.76342788405517
O -9.40223789402416 -8.115244225198714 -6.117647578892791
H -9.025570059673846 -7.977688363408638 -5.235509786734991
H -9.961253118917002 -7.336209439892578 -6.257535841163179
O 13.821180844430788 -3.5470419803527453 1.2982699020102877
H 14.136416455290457 -2.7158214797819973 1.6838426525734542
H 13.83862982226429 -4.170508485529727 2.0398540134871754
O -1.9867559324635558 -12.279204047690206 -6.061558680459482
H -2.4152184298787533 -11.625283126906146 -6.634074771560562
H -1.346352119018754 -11.760334779398164 -5.552029895750087
O -11.177564786961135 11.283251619371981 -3.1186209255380515
H -12.137267874789945 11.264133696949937 -3.25117976211304
H -10.892332853721337 10.384804330424624 -3.3431140380012843
O -3.3973654248164706 -7.059847252859759 -17.809598809439656
H -2.886588055024202 -6.349526864809773 -18.226154666112695
H -2.72976398881619 -7.722163111557224 -17.575915326351517
O 12.741148842419708 1.431250402122399 5.266019364286697
H 12.282509186165775 1.4569956871789065 4.412817041910209
H 12.049642823257013 1.6457766563061647 5.910037885780952
O 16.349832758431116 3.2499866549582883 9.115420286373906
H 16.08348189308009 3.239816723285755 8.18379743032295
H 16.141262408051446 4.1496866155693395 9.408678422013777
O 12.177346484184836 -0.030171971390386076 -12.259557104815467
H 12.749929042017115 0.6568455504676942 -12.632549726761571
H 11.467309784007783 -0.12296795771642843 -12.91239608467456