194

C -5.0710522388059704 1.0783507462686561 0.47044029850746183
C -3.8153522388059704 0.1782507462686569 0.19534029850746193
C -4.11845223880597 -1.3219492537313435 0.5608402985074619
C -2.96945223880597 -2.3874492537313436 0.7034402985074619
C -2.52015223880597 0.7359507462686565 0.7384402985074618
C -2.20305223880597 0.7852507462686571 2.097440298507462
C -1.5755522388059702 1.205650746268656 -0.18965970149253808
C -0.9533522388059701 1.2695507462686564 2.508640298507462
H -2.91125223880597 0.4298507462686567 2.840840298507462
C -0.32655223880597006 1.6562507462686575 0.21554029850746192
H -1.7850522388059702 1.178550746268657 -1.2573597014925382
C 0.004447761194029898 1.6956507462686563 1.569740298507462
H -0.7158522388059702 1.2676507462686573 3.5705402985074617
H 0.3943477611940298 1.9193507462686572 -0.5551597014925382
C -1.76045223880597 -2.1592492537313435 -0.1734597014925381
C -0.5287522388059701 -1.936549253731343 0.464840298507462
C -1.8068522388059702 -2.121249253731343 -1.5681597014925381
C 0.6114477611940299 -1.614449253731343 -0.2582597014925381
H -0.4544522388059702 -1.954049253731343 1.5506402985074619
C -0.6479522388059701 -1.8270492537313432 -2.2998597014925384
H -2.74345223880597 -2.290549253731343 -2.092259701492538
C 0.5698477611940298 -1.5506492537313434 -1.6506597014925382
H 1.5072477611940298 -1.351949253731343 0.2991402985074618
H -0.7173522388059701 -1.7640492537313435 -3.3840597014925375
C 1.7791477611940298 -1.082849253731343 -2.4255597014925376
H 1.4739477611940297 -0.9102492537313429 -3.464259701492538
H 2.1252477611940295 -0.1337492537313434 -2.0010597014925384
C 1.3965477611940298 2.0964507462686566 1.997440298507462
H 1.51704776119403 1.8448507462686567 3.057640298507462
H 2.1256477611940294 1.5207507462686571 1.4165402985074618
C 3.94864776119403 -1.4275492537313434 -3.522959701492538
H 4.81734776119403 -2.087049253731343 -3.615159701492538
H 3.4305477611940303 -1.3641492537313429 -4.484459701492538
H 4.26984776119403 -0.441449253731343 -3.176459701492538
C 2.60904776119403 -3.4296492537313434 -2.8992597014925376
H 1.9825477611940296 -3.869549253731343 -2.119359701492538
H 2.06294776119403 -3.373349253731343 -3.845759701492538
H 3.5215477611940305 -4.019849253731343 -3.0234597014925377
C 3.7281477611940304 -2.060049253731343 -1.156659701492538
H 3.9048477611940298 -1.032549253731343 -0.8295597014925382
H 3.12924776119403 -2.623249253731343 -0.4404597014925382
H 4.68244776119403 -2.5769492537313434 -1.3005597014925383
C 3.1110477611940297 3.755250746268656 2.588740298507462
H 3.40124776119403 4.809350746268656 2.534540298507462
H 2.9823477611940303 3.461750746268656 3.634840298507462
H 3.86514776119403 3.1392507462686563 2.091540298507462
C 1.99744776119403 3.9574507462686572 0.40494029850746194
H 2.67914776119403 3.230350746268657 -0.04295970149253803
H 1.03214776119403 3.981150746268657 -0.10175970149253821
H 2.4399477611940297 4.958250746268657 0.368240298507462
C 0.7418477611940297 4.4992507462686575 2.475440298507462
H -0.18475223880597014 4.424250746268656 1.901240298507462
H 0.57844776119403 4.189650746268656 3.511940298507462
H 1.1210477611940297 5.524350746268658 2.4432402985074617
N 3.00114776119403 -2.025349253731343 -2.490159701492538
N 1.7831477611940298 3.586450746268657 1.862540298507462
C -3.55075223880597 -3.8435492537313434 0.6444402985074619
H -2.62515223880597 -2.2736492537313433 1.7424402985074618
H -4.67195223880597 -1.3478492537313436 1.5102402985074619
H -4.83415223880597 -1.6757492537313432 -0.1945597014925382
H -3.7169522388059697 0.17335074626865676 -0.900559701492538
H -3.9132522388059705 -4.043149253731343 -0.34225970149253815
H -4.35435223880597 -3.9354492537313432 1.3449402985074619
H -2.78115223880597 -4.545049253731343 0.8904402985074619
H -5.24235223880597 1.138950746268657 1.5249402985074618
H -5.92805223880597 0.6501507462686567 -0.006059701492538094
H -4.89895223880597 2.059650746268657 0.08004029850746197
C -2.0550991549504065 3.7007610164718656 -0.9230723373417183
O -0.9113370953341966 3.7093042597597425 -0.4946906587225113
O -3.0040210469455726 4.324001423179155 -0.43342950584140305
O -2.440646624182617 3.0675440452766423 -1.9125357276493062
O 7.46173458374162 5.893022740406316 0.24262069057016822
H 7.105995227290543 6.176021829622846 -0.6131411820757149
H 8.07143631945052 5.174589242923725 0.016613948483818586
O -7.664032815424086 -3.701260711645653 7.288486923349879
H -7.753678138852234 -3.645288028495193 8.251709707355948
H -7.0880552930250955 -4.468310142460744 7.151202515359159
O 10.615484779191654 -2.939136562685377 2.9432619067876726
H 10.25129664126853 -3.7562008749340428 3.315740452137205
H 10.573374355393815 -3.0794489445883326 1.9853991337391097
O -2.1363546586178765 -2.536348767090163 5.443033638293357
H -2.0394036643839466 -2.372138932017796 6.3930878428956825
H -1.2512537254184566 -2.8128486666372305 5.161775593252904
O -5.884501313808569 -11.078512216800315 6.053162492997842
H -5.635646982677543 -11.012573264448354 5.118983209701506
H -6.849089280299271 -10.986462759075934 6.045488085269733
O 0.39252652143423283 9.545031744309494 2.3349254263764445
H 0.46659303880888015 9.469669705241836 1.3717005974961063
H 1.2399635950548267 9.929227497404671 2.605491451325982
O -4.395661265491029 7.440631957573393 -2.2096054536901213
H -4.218577186160333 7.029882792376253 -1.3500161860526907
H -4.960183851464299 8.19842076579616 -1.9950540231230658
O 0.8567135156325838 -9.105090351579868 5.729960714671385
H 0.9023865048153761 -9.11863514317334 6.697792246282026
H 1.766001402241883 -9.289086349833088 5.450134060843708
O -1.633930963984238 -6.718773310831753 -0.6000330151190887
H -1.6254335731205758 -7.682424136647108 -0.7013850607516048
H -1.0348152932172547 -6.556390930301338 0.1440464966501189
O 4.558546985290441 -6.0590646838665965 -1.211427266876187
H 4.444147625457958 -5.521191769851615 -2.0092824365272652
H 4.931233127951117 -6.890543641010609 -1.541138848710083
O -6.910821061550098 -0.3212779529739591 -3.742424020446224
H -7.216355352163093 -0.6814632173087363 -4.588522554610951
H -6.262546578521301 -0.9710793387385204 -3.431843438290481
O -1.170587841062706 3.5873552841977263 4.42756866928934
H -1.3006746853652154 4.24397976441948 5.128203425644553
H -0.8366849822758113 2.8078316586561654 4.8964116519780845
O -6.448843336730426 4.315155340865605 1.9472421915325278
H -6.14361299894766 5.112422408345734 2.4056819595595322
H -5.732809523026755 3.677070312959703 2.0854630984001212
O 7.073724930910427 2.6624038551282876 -0.0659757328524275
H 7.171029659685079 2.5623554903372763 -1.0248758691339577
H 6.614442749538406 1.8544277644497047 0.20824399485860107
O 7.936735151840606 6.233908731161277 -3.4180640540711478
H 8.870321243376438 6.205821252426759 -3.160003092030796
H 7.756795202094938 5.339055527055981 -3.743365916789469
O 7.4040184483004 -0.07853880564211035 -6.1281324471555045
H 6.563198829551206 -0.5242354660396615 -6.310736424486048
H 7.281816480535715 0.8105730389221022 -6.493520940720998
O -2.7066278691313537 -4.275283081040355 -8.472539070726633
H -2.0381527543661324 -4.8815909688278225 -8.825383403324345
H -2.6465753713119224 -3.499172551155804 -9.049607599766269
O 7.329680507514118 -6.939801422027641 -5.746606943571294
H 7.232684537854169 -7.408105006454751 -4.903843102639299
H 6.494125200556319 -7.11043522779166 -6.2067084298166035
O -7.927504633136986 0.8679821380846926 4.329327366870669
H -7.693280108307995 1.3098363399516062 5.15930995292967
H -8.895815872413788 0.9002373060644815 4.312154937548642
O -7.701759825887722 -8.323421740252751 -3.937016332394488
H -7.266148940826055 -7.557523203287887 -4.340265566480397
H -6.97401575213342 -8.935682153846011 -3.7513077074948895
C -5.795367162500213 -7.503514669020634 6.0092418043881715
O -6.052224105281479 -7.986772930311224 7.073809426072889
O -5.5385102197189475 -7.020256407730042 4.944674182703454
O 21.06329315305748 1.7585460416523802 -13.268428776022999
H 21.075649490894875 1.800091178722914 -12.300395367817973
H 21.26800182757495 2.6646337974335648 -13.544220874714595
O 2.982876435597228 9.354465724101015 -18.493877473456518
H 3.103396627308915 8.412979698628599 -18.29882285513147
H 3.2909425462368955 9.4453957160012 -19.408092411175424
O -5.723463519259216 2.2020553678924046 -7.957669821232614
H -5.097003456514222 1.664822457542411 -8.465504387526021
H -6.352053950884086 2.520147678461276 -8.622991770011259
O -12.48122199104254 5.963383241625028 -1.6977247736700234
H -11.571313714978643 6.273196154690949 -1.8204042134634761
H -12.475819554912565 5.068392663415799 -2.0691068180671266
O -2.5930493361094786 21.36624540797813 -8.695635521524583
H -2.803050201742814 20.906761507923207 -7.868748867306742
H -2.3564440770518504 20.652282022372937 -9.306566106535216
O -12.663580640723604 6.0000169541093715 -6.200812854478699
H -11.791002564886767 5.879167704616508 -6.604508677303134
H -12.481659703835028 6.513663774762745 -5.39954282467959
O -10.618134629480945 -10.276434321039051 -10.83317464022278
H -10.380317423925597 -11.024550424577962 -10.26507902391545
H -9.877452869331403 -9.660092887011432 -10.730823718475314
O -5.676353981943563 21.419632130709324 -6.2987620217576135
H -6.140075815202209 20.678002098644452 -5.881731670585543
H -5.171937578710611 21.817853910061842 -5.573541054811092
O -9.460306292278563 14.045844229136225 14.772440654715556
H -9.497104493670578 13.992676814308806 13.805597091736063
H -10.262712581088715 13.58672273803825 15.062808608164088
O 10.078383741464481 6.819695209507579 7.6382596114897074
H 9.600181183251461 7.247790038161012 6.912295089010331
H 9.398093403563063 6.300194982563161 8.092447364145668
O 3.665033320383615 9.27378005632262 -13.170532982536248
H 4.188551057773356 9.570773459462362 -12.41113094538478
H 4.0437604892942165 9.757921167955395 -13.919622469751188
O -2.602459086026443 -0.682427769475541 -10.261106041503753
H -2.0077874892441225 -1.0835657605280242 -9.60962974798668
H -3.375844205362622 -1.266238223585423 -10.262765909383067
O 5.076155997634887 -19.081404112257825 -3.0106957461186035
H 5.442495360946159 -18.296923180972687 -3.4458422688424974
H 4.387298458681778 -19.386777821633153 -3.6199445729125683
O 2.658059480147629 1.1240323987345544 12.143324467235905
H 2.137952748370036 1.9219062810089802 11.9648486637107
H 2.309322757727317 0.472289268377327 11.516765982521427
O -12.518689566857816 4.99279198874567 3.354775377836808
H -12.522273764774773 4.979622313987931 4.323682530298832
H -13.095555261984464 5.7378234707400555 3.128686888693076
O -16.686295389045036 4.222050884138818 -3.6530540653798367
H -16.401366121530295 4.104308869530506 -2.734403159208459
H -16.08894381994668 3.6504869304938508 -4.158472401107252
O 20.36365098395624 -6.758079407939515 -3.415859989750696
H 19.831751809034355 -5.9597194128128095 -3.552505307265438
H 20.720837919840402 -6.651111425660201 -2.5214678565670585
O -8.773318240415447 -4.723926814154434 -6.9668974914867325
H -8.012631335297627 -4.68949051601526 -7.566177835443334
H -9.536941459722907 -4.601320753830958 -7.550686218002127
O 0.09895779120719306 -5.392802404346492 -11.391359345276218
H 0.35305910853721656 -5.389553350170084 -10.45627147717071
H 0.8199417573645627 -5.87065518946134 -11.828166832164863
O 0.5281790272083144 15.466914544436607 -9.383844958595443
H 0.6843178550476816 14.52032986115775 -9.520100089591738
H 0.8428097962989587 15.628557807525315 -8.48171366053542