194

C -5.0710522388059704 1.0783507462686561 0.47044029850746183
C -3.8153522388059704 0.1782507462686569 0.19534029850746193
C -4.11845223880597 -1.3219492537313435 0.5608402985074619
C -2.96945223880597 -2.3874492537313436 0.7034402985074619
C -2.52015223880597 0.7359507462686565 0.7384402985074618
C -2.20305223880597 0.7852507462686571 2.097440298507462
C -1.5755522388059702 1.205650746268656 -0.18965970149253808
C -0.9533522388059701 1.2695507462686564 2.508640298507462
H -2.91125223880597 0.4298507462686567 2.840840298507462
C -0.32655223880597006 1.6562507462686575 0.21554029850746192
H -1.7850522388059702 1.178550746268657 -1.2573597014925382
C 0.004447761194029898 1.6956507462686563 1.569740298507462
H -0.7158522388059702 1.2676507462686573 3.5705402985074617
H 0.3943477611940298 1.9193507462686572 -0.5551597014925382
C -1.76045223880597 -2.1592492537313435 -0.1734597014925381
C -0.5287522388059701 -1.936549253731343 0.464840298507462
C -1.8068522388059702 -2.121249253731343 -1.5681597014925381
C 0.6114477611940299 -1.614449253731343 -0.2582597014925381
H -0.4544522388059702 -1.954049253731343 1.5506402985074619
C -0.6479522388059701 -1.8270492537313432 -2.2998597014925384
H -2.74345223880597 -2.290549253731343 -2.092259701492538
C 0.5698477611940298 -1.5506492537313434 -1.6506597014925382
H 1.5072477611940298 -1.351949253731343 0.2991402985074618
H -0.7173522388059701 -1.7640492537313435 -3.3840597014925375
C 1.7791477611940298 -1.082849253731343 -2.4255597014925376
H 1.4739477611940297 -0.9102492537313429 -3.464259701492538
H 2.1252477611940295 -0.1337492537313434 -2.0010597014925384
C 1.3965477611940298 2.0964507462686566 1.997440298507462
H 1.51704776119403 1.8448507462686567 3.057640298507462
H 2.1256477611940294 1.5207507462686571 1.4165402985074618
C 3.94864776119403 -1.4275492537313434 -3.522959701492538
H 4.81734776119403 -2.087049253731343 -3.615159701492538
H 3.4305477611940303 -1.3641492537313429 -4.484459701492538
H 4.26984776119403 -0.441449253731343 -3.176459701492538
C 2.60904776119403 -3.4296492537313434 -2.8992597014925376
H 1.9825477611940296 -3.869549253731343 -2.119359701492538
H 2.06294776119403 -3.373349253731343 -3.845759701492538
H 3.5215477611940305 -4.019849253731343 -3.0234597014925377
C 3.7281477611940304 -2.060049253731343 -1.156659701492538
H 3.9048477611940298 -1.032549253731343 -0.8295597014925382
H 3.12924776119403 -2.623249253731343 -0.4404597014925382
H 4.68244776119403 -2.5769492537313434 -1.3005597014925383
C 3.1110477611940297 3.755250746268656 2.588740298507462
H 3.40124776119403 4.809350746268656 2.534540298507462
H 2.9823477611940303 3.461750746268656 3.634840298507462
H 3.86514776119403 3.1392507462686563 2.091540298507462
C 1.99744776119403 3.9574507462686572 0.40494029850746194
H 2.67914776119403 3.230350746268657 -0.04295970149253803
H 1.03214776119403 3.981150746268657 -0.10175970149253821
H 2.4399477611940297 4.958250746268657 0.368240298507462
C 0.7418477611940297 4.4992507462686575 2.475440298507462
H -0.18475223880597014 4.424250746268656 1.901240298507462
H 0.57844776119403 4.189650746268656 3.511940298507462
H 1.1210477611940297 5.524350746268658 2.4432402985074617
N 3.00114776119403 -2.025349253731343 -2.490159701492538
N 1.7831477611940298 3.586450746268657 1.862540298507462
C -3.55075223880597 -3.8435492537313434 0.6444402985074619
H -2.62515223880597 -2.2736492537313433 1.7424402985074618
H -4.67195223880597 -1.3478492537313436 1.5102402985074619
H -4.83415223880597 -1.6757492537313432 -0.1945597014925382
H -3.7169522388059697 0.17335074626865676 -0.900559701492538
H -3.9132522388059705 -4.043149253731343 -0.34225970149253815
H -4.35435223880597 -3.9354492537313432 1.3449402985074619
H -2.78115223880597 -4.545049253731343 0.8904402985074619
H -5.24235223880597 1.138950746268657 1.5249402985074618
H -5.92805223880597 0.6501507462686567 -0.006059701492538094
H -4.89895223880597 2.059650746268657 0.08004029850746197
C -1.9236143559208139 1.1803088445710253 -3.411378170007543
O -0.8363597727664663 0.6410485984887844 -3.2740779259976147
O -2.175582009329453 2.3576587931971016 -3.1303250358746544
O -2.9401958324596458 0.6321234596150251 -3.852630104483496
O -5.274307435346209 -5.79099119800617 4.786420392322905
H -5.372606692081456 -6.578470414731148 4.230379839618777
H -4.3207713459550385 -5.618631097326188 4.781638528441633
O -5.061204946104325 -7.592496575698664 -4.229054865827309
H -5.128459693883918 -6.915733553170183 -3.538811454312777
H -5.713889502235693 -8.259247253283078 -3.967504969195094
O -7.433014790838268 4.465958353914187 -3.5497002573355525
H -7.8847482643928855 4.10884672127178 -2.770357259932127
H -7.880970076544597 4.039633310779831 -4.295719669887433
O 2.4106471625696013 0.06764843743028175 7.666850424380242
H 2.781547274188375 -0.8169610226380946 7.804206047704221
H 3.161763264707492 0.6618462429248744 7.814212269355769
O 8.584601946998172 -2.5002852141037666 6.209815999129154
H 8.600096065495853 -2.443266091358229 5.242615860154127
H 8.86541360610513 -1.6196720021641815 6.500723419741014
O 1.4890670680588376 1.6829923956040962 10.970788516775167
H 1.268144847025848 1.1718752261447447 11.763833262194815
H 2.3465297584580664 1.3265287696532178 10.693925080678477
O -8.76391502473937 -4.552557123096745 -7.806469233701819
H -8.97835279023423 -3.93394787408329 -7.092111901084184
H -7.896828477888053 -4.906236198003165 -7.557403024546913
O 3.4934136045305273 8.65075371624197 4.648368854976752
H 3.179510082516184 9.563747077609317 4.565452886272616
H 2.755284375302604 8.18698295096953 5.071504604515841
O -7.493027626477623 -3.25693438393221 0.24086003732671868
H -6.651995008532008 -3.585428371995424 -0.11088303973077074
H -7.231224486082214 -2.6877874232321464 0.9801115487252294
O 0.5858428458203639 0.48753908852396044 -7.755960629120898
H 1.2203163660451737 1.090481866199985 -8.17173787222333
H -0.21316861603057902 0.5794902448638242 -8.296411934030582
O -0.5485943231988433 -6.701789627743724 5.6559459748714955
H -0.29717775565014026 -7.4452038645166505 5.087533854112836
H -1.4654898970061603 -6.514561356325345 5.404529934384348
O 7.160100725607849 -0.1702664518067314 -3.0724254942716174
H 7.294148698505008 -0.1049694513218653 -4.029888182625499
H 7.789713909830815 -0.852156303143679 -2.7939018629648755
O -6.99156790283467 -6.596442775450548 1.1428469364862786
H -6.887851576109403 -6.573485487620683 2.1060100812370086
H -7.7665286893157965 -7.161419462423403 1.0042862389789078
O 7.128877658878467 -6.6395833703127165 1.0674646645462122
H 6.8668405269626005 -5.723581047119421 0.8907059524503396
H 6.567443356363933 -7.162075745612761 0.4752187814762339
O 10.433022311054344 -3.1621284007839305 4.438920392465086
H 10.078648224428255 -3.3990278426624645 3.56871063725341
H 10.533720374265481 -4.013618805085409 4.890346948781874
O -8.745216849012097 -6.2603643458257325 -1.2285677316479786
H -7.78065798237956 -6.299831808213575 -1.1446876439440388
H -8.951881895441051 -5.320640216250409 -1.1138068359630093
O -0.17144398168825725 3.461154900691688 6.679204433503931
H -0.11934842490744374 3.4508658294297994 7.646751613168192
H 0.33827882710662094 2.6825845031128943 6.4090697661465965
O -8.954079352838736 5.438002549902878 3.9736057546802437
H -9.327295993007189 5.3790502986359074 4.865906896936561
H -8.308853309533195 6.15817016367474 4.036882175362976
O 7.644982413881582 2.7002420982216657 -0.647045582431334
H 7.864037149252435 2.541245535188256 -1.5774769193687617
H 7.595045808624656 3.66563046548986 -0.580011411304486
O 1.5536493235948674 -9.060496386042708 5.4085836563538505
H 1.7566035437301766 -8.927115193933613 6.346659558944268
H 1.5938497263999332 -8.168853283441068 5.031332480746367
C -2.0947781182923855 -7.054386459569127 -5.643362146289317
O -2.194092995038962 -6.250897879788295 -4.761681413416814
O -1.9954632415458082 -7.857875039349958 -6.525042879161821
O 0.9691175261814926 6.546511516293186 -10.190894776096274
H 1.525014483366886 6.538122222718456 -10.984541769189136
H 1.365599847974707 7.2338148459285545 -9.63467733131627
O 14.875663282588066 -2.11751491486897 -19.323399389643633
H 15.035569506913234 -1.5271917582411643 -20.075008282001257
H 14.470474005595072 -2.901495883784614 -19.723596134367995
O -19.80101082939859 -11.232015869829132 -9.075558813865081
H -20.72977021281699 -11.007850055975016 -8.913932539666252
H -19.31418725820172 -10.6832716138322 -8.442436000867868
O 9.429231241889049 5.161470237421141 9.435798923524018
H 9.31966675125103 6.090911308528351 9.687000584804979
H 9.303183639674376 5.162258842589972 8.475031873517713
O -14.3407659270558 -8.749085893481908 -8.003202284326509
H -14.294043490358877 -8.469842315824403 -7.076483667298589
H -15.12069708944571 -8.288451281296544 -8.347418902591759
O 12.034143585004223 -12.70930387906198 -1.8063890043784987
H 11.920981729778207 -11.837545500729991 -2.214064219751945
H 11.777127833048459 -13.329574722742223 -2.50507987166303
O -7.721082259005915 6.39598212390842 9.72719621663676
H -7.72441735181288 6.445820847906093 10.694911224087948
H -7.735066500255721 7.322888296915433 9.445041415617608
O -2.5082052955911704 12.755148603063219 -4.268711178515977
H -1.7071686514150741 13.200172465820424 -4.583768971886898
H -2.217232658342846 11.848319510418172 -4.0899435488809734
O 10.005049596286831 -5.38920517683964 0.852014253251272
H 9.481477303230742 -5.629685782147833 0.07290675789867507
H 10.686956643591824 -6.076190408742906 0.8969143009417007
O -14.001698230910218 -3.6733754588493164 4.612656234625231
H -13.265384619923326 -3.254802420425157 4.14190552068014
H -13.569027131094202 -4.213875488456213 5.2906071042897995
O -4.6095021653238915 2.294422207844828 -3.6963136595803934
H -4.733887293461272 2.608619312954615 -4.604485381194141
H -4.475071772429434 3.10599124386178 -3.1842139490310153
O -6.717146122507927 -2.215797615396447 15.358881047994933
H -6.652786861206673 -1.7728576191914023 16.218316561658778
H -6.606302602106839 -3.154853609525535 15.570658049048685
O 4.985362644144137 8.250551879824307 -14.473765386657714
H 4.852486037861636 8.632573783427702 -13.593214178850872
H 5.341583862332472 8.984843600886087 -14.996148441888785
O 4.483406891123446 -17.078297651232567 0.28693228209575494
H 5.246590039226599 -17.532695690446722 -0.10041931698406437
H 3.933422521179182 -17.797405948858767 0.6324209120130995
O -11.15411377176697 -17.467244382647866 -12.483668976973323
H -10.576541485220577 -18.2313595916405 -12.630316711697446
H -11.149971438985682 -17.00396041843953 -13.334734634773316
O 2.9293537596025243 -14.58144869367326 6.947693048404968
H 3.5767218718979135 -14.730497304990509 6.242238304606682
H 2.209247328311638 -14.105154430649556 6.507747089309752
O -1.1309331911403977 -5.214554641567347 -10.180568492178118
H -2.0755293445208514 -5.000906794610286 -10.148009907911236
H -1.0291808816290176 -5.925403386156891 -9.529951497222893
O 10.639462856605697 2.8338669657294764 14.357016157966092
H 10.842864505734221 2.614564224575631 15.27870017852531
H 11.201494738508593 3.600587315486265 14.169340871117994
O 7.851436233763223 -11.59535100536896 -4.005945865762147
H 7.917579411929514 -12.303519249359711 -3.347849995022088
H 7.9119757935555866 -10.782493899786864 -3.4819609118704844
O -1.6326445044050337 4.750053216212053 15.942017788913487
H -2.0167330686011087 3.894109013997725 15.699524790149656
H -1.6608131952099026 4.753262546766135 16.910603443027636