194

C -5.0710522388059704 1.0783507462686561 0.47044029850746183
C -3.8153522388059704 0.1782507462686569 0.19534029850746193
C -4.11845223880597 -1.3219492537313435 0.5608402985074619
C -2.96945223880597 -2.3874492537313436 0.7034402985074619
C -2.52015223880597 0.7359507462686565 0.7384402985074618
C -2.20305223880597 0.7852507462686571 2.097440298507462
C -1.5755522388059702 1.205650746268656 -0.18965970149253808
C -0.9533522388059701 1.2695507462686564 2.508640298507462
H -2.91125223880597 0.4298507462686567 2.840840298507462
C -0.32655223880597006 1.6562507462686575 0.21554029850746192
H -1.7850522388059702 1.178550746268657 -1.2573597014925382
C 0.004447761194029898 1.6956507462686563 1.569740298507462
H -0.7158522388059702 1.2676507462686573 3.5705402985074617
H 0.3943477611940298 1.9193507462686572 -0.5551597014925382
C -1.76045223880597 -2.1592492537313435 -0.1734597014925381
C -0.5287522388059701 -1.936549253731343 0.464840298507462
C -1.8068522388059702 -2.121249253731343 -1.5681597014925381
C 0.6114477611940299 -1.614449253731343 -0.2582597014925381
H -0.4544522388059702 -1.954049253731343 1.5506402985074619
C -0.6479522388059701 -1.8270492537313432 -2.2998597014925384
H -2.74345223880597 -2.290549253731343 -2.092259701492538
C 0.5698477611940298 -1.5506492537313434 -1.6506597014925382
H 1.5072477611940298 -1.351949253731343 0.2991402985074618
H -0.7173522388059701 -1.7640492537313435 -3.3840597014925375
C 1.7791477611940298 -1.082849253731343 -2.4255597014925376
H 1.4739477611940297 -0.9102492537313429 -3.464259701492538
H 2.1252477611940295 -0.1337492537313434 -2.0010597014925384
C 1.3965477611940298 2.0964507462686566 1.997440298507462
H 1.51704776119403 1.8448507462686567 3.057640298507462
H 2.1256477611940294 1.5207507462686571 1.4165402985074618
C 3.94864776119403 -1.4275492537313434 -3.522959701492538
H 4.81734776119403 -2.087049253731343 -3.615159701492538
H 3.4305477611940303 -1.3641492537313429 -4.484459701492538
H 4.26984776119403 -0.441449253731343 -3.176459701492538
C 2.60904776119403 -3.4296492537313434 -2.8992597014925376
H 1.9825477611940296 -3.869549253731343 -2.119359701492538
H 2.06294776119403 -3.373349253731343 -3.845759701492538
H 3.5215477611940305 -4.019849253731343 -3.0234597014925377
C 3.7281477611940304 -2.060049253731343 -1.156659701492538
H 3.9048477611940298 -1.032549253731343 -0.8295597014925382
H 3.12924776119403 -2.623249253731343 -0.4404597014925382
H 4.68244776119403 -2.5769492537313434 -1.3005597014925383
C 3.1110477611940297 3.755250746268656 2.588740298507462
H 3.40124776119403 4.809350746268656 2.534540298507462
H 2.9823477611940303 3.461750746268656 3.634840298507462
H 3.86514776119403 3.1392507462686563 2.091540298507462
C 1.99744776119403 3.9574507462686572 0.40494029850746194
H 2.67914776119403 3.230350746268657 -0.04295970149253803
H 1.03214776119403 3.981150746268657 -0.10175970149253821
H 2.4399477611940297 4.958250746268657 0.368240298507462
C 0.7418477611940297 4.4992507462686575 2.475440298507462
H -0.18475223880597014 4.424250746268656 1.901240298507462
H 0.57844776119403 4.189650746268656 3.511940298507462
H 1.1210477611940297 5.524350746268658 2.4432402985074617
N 3.00114776119403 -2.025349253731343 -2.490159701492538
N 1.7831477611940298 3.586450746268657 1.862540298507462
C -3.55075223880597 -3.8435492537313434 0.6444402985074619
H -2.62515223880597 -2.2736492537313433 1.7424402985074618
H -4.67195223880597 -1.3478492537313436 1.5102402985074619
H -4.83415223880597 -1.6757492537313432 -0.1945597014925382
H -3.7169522388059697 0.17335074626865676 -0.900559701492538
H -3.9132522388059705 -4.043149253731343 -0.34225970149253815
H -4.35435223880597 -3.9354492537313432 1.3449402985074619
H -2.78115223880597 -4.545049253731343 0.8904402985074619
H -5.24235223880597 1.138950746268657 1.5249402985074618
H -5.92805223880597 0.6501507462686567 -0.006059701492538094
H -4.89895223880597 2.059650746268657 0.08004029850746197
C 0.7746249191964716 -3.7456482321975892 3.4590696340022107
O 1.050463258347006 -2.5701200699449718 3.275161371529699
O 1.1607073560743417 -4.686548865653455 2.756020692607093
O 0.06670309142185227 -4.176280125531364 4.376703135245496
O -6.754821226062873 -4.138912113682382 -8.366572866818776
H -6.755476352990986 -4.168836533468136 -7.398031976195569
H -7.28523841686694 -3.355726017859151 -8.576903766376322
O -4.99341428877726 -4.864578781434495 -5.3393743550310715
H -4.745229238706926 -4.983153576319826 -6.268519960326329
H -4.165403538195585 -4.606887736457599 -4.906990883376702
O 8.527247622275459 -3.038994292329532 6.333887155312327
H 8.486188752551966 -3.10419777897245 5.367952358627459
H 8.369905301759452 -2.0995827370134714 6.511963734943946
O 1.3922081934038815 -1.6138695373829375 -8.368999120514408
H 2.0567440877802916 -1.6682953930966877 -7.665865258283914
H 1.459754081044821 -2.468052661372185 -8.821515073884857
O 9.104172541557706 -4.586293013673921 -1.731505186126686
H 9.275067539980554 -5.527476252286897 -1.5767913607326873
H 9.34250404117633 -4.164123728230161 -0.8924979543238596
O -5.420886641263787 8.70283629480281 8.18143630004792
H -5.6761995806757675 8.410253265006006 7.293642500484229
H -4.5121754030470544 8.381583501107816 8.281448661192806
O 2.579026388978086 -12.418565743614344 -2.463393169281086
H 3.1206066222942717 -12.986147248250006 -1.8946142637503804
H 2.6571306587779917 -11.540743066198033 -2.0605420623536275
O -3.2183948741273074 -7.356254297019878 -1.6942181977966833
H -2.3570569786428055 -7.056810453977045 -2.021934190030919
H -3.5128858504628546 -6.635402417259198 -1.1174950609255936
O -1.4439544876081845 1.9772179276737485 10.055968850431379
H -0.9541711061134124 1.2487063046949296 9.645663584444803
H -2.3113429059211974 1.9481289703410385 9.624978005241196
O 1.9684643762376473 1.3464602302665658 -5.112918051149618
H 1.3522163125529842 0.6385276109959435 -5.353826929104626
H 2.341572745892397 1.6306027624948447 -5.9608656380749405
O -7.992154784263066 -2.067243661665649 -2.0727591187421233
H -7.6523212919882315 -2.1460402678764416 -1.168728339798202
H -7.195763219703378 -1.9548553251529452 -2.6132138180593536
O -7.4905707975299425 6.926691068343403 -2.1843148706710043
H -8.27422322183444 6.865903476843975 -2.7510256465535408
H -7.851859790903537 6.93319654388749 -1.285209823218238
O 10.517602088438078 -0.5204117690420498 -1.250947394272273
H 10.535139460446281 -0.47292579264137835 -0.28326724074615983
H 10.82481340101415 0.3539889610791951 -1.5338016268528052
O 9.343572756975938 -8.711242180154265 -2.0851025467450404
H 9.063148808108444 -8.036852400020905 -2.7219135000531933
H 9.816848488136209 -8.208658114058647 -1.4051163093096743
O -4.5798318748357865 9.666682985714855 -3.125394620722341
H -3.662486104125065 9.355456203373954 -3.1012702800498317
H -5.068850143650037 8.924163448055735 -3.510735785484678
O 6.302619148221235 -6.905587938679218 -4.858804233240339
H 7.137574219107707 -7.298010851208669 -4.5624570648333
H 6.567135707473189 -6.058197044299222 -5.2472905345475755
O -4.900993684637339 2.958694864551034 -4.307452892170581
H -4.888369534578041 3.075055942049482 -5.269361457148916
H -4.493024650114748 2.0903627091676538 -4.171355577362548
O -1.6229631977747203 -1.4364773570169245 -9.405725281874386
H -1.1886846565635771 -1.0359667445676015 -10.173814309825566
H -2.2893610952816434 -2.0235314581624344 -9.793337547968465
O -9.220002970969583 -5.418555263889266 -0.773374995803743
H -9.278668230777539 -5.5115384093214335 -1.7361210053292078
H -9.792168768474431 -4.661826904590473 -0.5760163509497637
O 6.360339868627401 0.2762447973292428 9.850075653726815
H 5.480843048762475 -0.11418036720575397 9.964184775383682
H 6.291524320881646 0.7691810857107058 9.018667101759037
C 2.9056539063518163 1.388573628636288 11.816473190184889
O 3.225060242419753 2.4754617827742944 11.429857114246325
O 2.5862475702838794 0.30168547449828154 12.203089266123452
O 0.5012444801669094 -0.11477051794151949 7.79498128173665
H 0.37168503195130875 -0.4888371762308339 6.91052899843679
H -0.249124017961468 -0.4548213095511966 8.305152351518341
O 16.23722852618853 -2.3009168315975748 -6.989141793218356
H 15.733391681060311 -2.5102952702067673 -6.1883444032146055
H 15.840315882487953 -1.4758116794724963 -7.306354317415096
O -2.578880392310467 14.011305736887904 0.43857985162701985
H -2.4986128963022747 14.298224998699771 1.360643744850211
H -3.2007790731362045 14.644534036294514 0.049702112590932046
O 2.3704397335891834 6.612997288930104 -11.081364558392732
H 2.4054978686301958 6.8144220587378115 -10.134175904440754
H 1.4222825883965466 6.569027800767943 -11.276368805605212
O 6.352180253737105 -10.873373347876921 8.299955594962945
H 6.491207198882361 -10.378835084519077 9.121582500254261
H 6.245177925500486 -11.79045688751993 8.594013799010707
O -5.379625569157975 -13.811991382768483 8.208803054930444
H -4.483679712428447 -13.62664794925466 8.528014881720276
H -5.378981663691382 -13.474442150126947 7.30049581328318
O -0.7951081992957194 7.619689184319609 6.693005640399532
H -1.649234911884491 8.056960540760727 6.828019256670057
H -0.1653477274786077 8.35279277334993 6.622842828400954
O -16.10770123069652 -14.577423703027142 4.684576543831687
H -15.681790133091935 -13.813695122856608 5.1020519918139176
H -15.400197485511566 -15.236949027798637 4.626038173216235
O 13.585779246582481 4.216299836006397 0.030156911850577006
H 13.635471629499808 3.395446329739979 0.5426971982965567
H 14.218742170587207 4.0806890123158635 -0.6909045180105409
O 11.514950358260162 16.83527969972682 2.0299623548433874
H 11.675192159708873 16.15146611573965 1.3623629957041659
H 11.910183137213366 16.471992252357403 2.8366687607462686
O -16.24896458304482 9.636365216491091 -6.794335401150982
H -16.186707150960096 9.65572593958455 -7.761142792233362
H -15.33313076551492 9.511917789091054 -6.50326290024765
O 5.326234851947866 12.5836056503388 -19.626500518991367
H 5.132547734414855 12.885759407664075 -18.726413987409
H 5.426101794736647 13.404008281131858 -20.132393849077708
O 8.081245586335276 -8.582226581317048 6.312545299923226
H 8.122559978112005 -9.184541236078795 7.0704882625473005
H 7.403769099856529 -8.972488554288113 5.740109148880034
O -6.335831427922606 -10.933419502107203 -4.730975543289268
H -6.425351816598829 -10.869011452210902 -3.7682683915448676
H -6.047559973035202 -11.846683602368495 -4.878658297092926
O -11.821521749421422 -6.56082551467354 -8.830366370878545
H -11.49862088090756 -6.953784673727313 -9.655160578744209
H -12.36831021498886 -7.257674560029633 -8.437446880131771
O -10.285582099649957 -0.20806194457098126 3.67732637231991
H -10.565358797587749 0.1988546368354429 4.511059694172608
H -10.622448362444505 -1.1148032716080678 3.7348001153149397
O 6.589270796170567 15.356216186988709 -9.44376582424498
H 6.779231050771608 15.364554510984297 -8.493601138032716
H 6.039360514148869 16.142446085888373 -9.57942411593051
O -12.868352742042696 4.091259479220611 -1.3130518129003246
H -12.406820095283427 3.357812649615406 -0.879449782211517
H -13.788821010022478 3.792402095801383 -1.3618818888588624
O 5.78150634503972 -4.8356463889973575 -8.345463829699346
H 5.460612729363817 -4.102789403946815 -8.89219528460301
H 5.621390860870717 -5.621235758807854 -8.889682827962059
O 9.422889825126054 -5.047371638411176 -4.426086876381454
H 9.605148484639207 -5.399328700164029 -5.310324041747608
H 9.406399549088547 -4.087151800107899 -4.555191009642295