194

C -5.0710522388059704 1.0783507462686561 0.47044029850746183
C -3.8153522388059704 0.1782507462686569 0.19534029850746193
C -4.11845223880597 -1.3219492537313435 0.5608402985074619
C -2.96945223880597 -2.3874492537313436 0.7034402985074619
C -2.52015223880597 0.7359507462686565 0.7384402985074618
C -2.20305223880597 0.7852507462686571 2.097440298507462
C -1.5755522388059702 1.205650746268656 -0.18965970149253808
C -0.9533522388059701 1.2695507462686564 2.508640298507462
H -2.91125223880597 0.4298507462686567 2.840840298507462
C -0.32655223880597006 1.6562507462686575 0.21554029850746192
H -1.7850522388059702 1.178550746268657 -1.2573597014925382
C 0.004447761194029898 1.6956507462686563 1.569740298507462
H -0.7158522388059702 1.2676507462686573 3.5705402985074617
H 0.3943477611940298 1.9193507462686572 -0.5551597014925382
C -1.76045223880597 -2.1592492537313435 -0.1734597014925381
C -0.5287522388059701 -1.936549253731343 0.464840298507462
C -1.8068522388059702 -2.121249253731343 -1.5681597014925381
C 0.6114477611940299 -1.614449253731343 -0.2582597014925381
H -0.4544522388059702 -1.954049253731343 1.5506402985074619
C -0.6479522388059701 -1.8270492537313432 -2.2998597014925384
H -2.74345223880597 -2.290549253731343 -2.092259701492538
C 0.5698477611940298 -1.5506492537313434 -1.6506597014925382
H 1.5072477611940298 -1.351949253731343 0.2991402985074618
H -0.7173522388059701 -1.7640492537313435 -3.3840597014925375
C 1.7791477611940298 -1.082849253731343 -2.4255597014925376
H 1.4739477611940297 -0.9102492537313429 -3.464259701492538
H 2.1252477611940295 -0.1337492537313434 -2.0010597014925384
C 1.3965477611940298 2.0964507462686566 1.997440298507462
H 1.51704776119403 1.8448507462686567 3.057640298507462
H 2.1256477611940294 1.5207507462686571 1.4165402985074618
C 3.94864776119403 -1.4275492537313434 -3.522959701492538
H 4.81734776119403 -2.087049253731343 -3.615159701492538
H 3.4305477611940303 -1.3641492537313429 -4.484459701492538
H 4.26984776119403 -0.441449253731343 -3.176459701492538
C 2.60904776119403 -3.4296492537313434 -2.8992597014925376
H 1.9825477611940296 -3.869549253731343 -2.119359701492538
H 2.06294776119403 -3.373349253731343 -3.845759701492538
H 3.5215477611940305 -4.019849253731343 -3.0234597014925377
C 3.7281477611940304 -2.060049253731343 -1.156659701492538
H 3.9048477611940298 -1.032549253731343 -0.8295597014925382
H 3.12924776119403 -2.623249253731343 -0.4404597014925382
H 4.68244776119403 -2.5769492537313434 -1.3005597014925383
C 3.1110477611940297 3.755250746268656 2.588740298507462
H 3.40124776119403 4.809350746268656 2.534540298507462
H 2.9823477611940303 3.461750746268656 3.634840298507462
H 3.86514776119403 3.1392507462686563 2.091540298507462
C 1.99744776119403 3.9574507462686572 0.40494029850746194
H 2.67914776119403 3.230350746268657 -0.04295970149253803
H 1.03214776119403 3.981150746268657 -0.10175970149253821
H 2.4399477611940297 4.958250746268657 0.368240298507462
C 0.7418477611940297 4.4992507462686575 2.475440298507462
H -0.18475223880597014 4.424250746268656 1.901240298507462
H 0.57844776119403 4.189650746268656 3.511940298507462
H 1.1210477611940297 5.524350746268658 2.4432402985074617
N 3.00114776119403 -2.025349253731343 -2.490159701492538
N 1.7831477611940298 3.586450746268657 1.862540298507462
C -3.55075223880597 -3.8435492537313434 0.6444402985074619
H -2.62515223880597 -2.2736492537313433 1.7424402985074618
H -4.67195223880597 -1.3478492537313436 1.5102402985074619
H -4.83415223880597 -1.6757492537313432 -0.1945597014925382
H -3.7169522388059697 0.17335074626865676 -0.900559701492538
H -3.9132522388059705 -4.043149253731343 -0.34225970149253815
H -4.35435223880597 -3.9354492537313432 1.3449402985074619
H -2.78115223880597 -4.545049253731343 0.8904402985074619
H -5.24235223880597 1.138950746268657 1.5249402985074618
H -5.92805223880597 0.6501507462686567 -0.006059701492538094
H -4.89895223880597 2.059650746268657 0.08004029850746197
C 1.3596848554515046 -2.2203327113767903 3.3088512995188015
O 1.845452726883525 -2.1268347735202324 2.192131455824344
O 1.8767989956964284 -1.795960511346634 4.348626595388212
O 0.2757945157451722 -2.7537994479327317 3.571992624436887
O -4.151689888611652 9.182585345988592 0.7976604848428899
H -3.5958307662534463 9.972229200893192 0.8779759590839546
H -5.005386625962094 9.527076557236125 0.4951879566516215
O -0.30634785629864236 11.264492816949206 -6.714061665724562
H -0.31310795625075993 10.34115453492165 -7.007946124127928
H -0.03467689288043285 11.212550733938068 -5.78537503830502
O -8.995903615020406 -4.403521655711057 -0.9118991137132364
H -8.537531421685657 -4.530471914449606 -0.06765630439609127
H -9.054788108317059 -3.4406871601104854 -1.0037919579982386
O -7.3190725609256235 1.4914687326846598 6.742442882020391
H -6.954192955282213 1.773650633418323 7.594618688520345
H -7.146260585688753 2.241617000732914 6.15390610198117
O 2.8841776058741693 -11.08539579222597 0.5279688918713565
H 2.9083250432506387 -10.448321229098479 -0.20177096532713001
H 2.2137373796745208 -10.727440338966343 1.1290843058103595
O 0.29202554601857134 1.8347987123312919 6.755889251782065
H 0.9519246624980622 2.314408264696081 6.232940697667959
H -0.2793315027815307 1.422623882590866 6.090588585304955
O 7.562807224646137 3.976776647064106 6.135160894292035
H 7.1648335730812995 3.0990209421317756 6.235805079513538
H 7.283694581411572 4.453030658934171 6.93155287872199
O 2.608827397053523 -6.714869556780397 -4.983127324393576
H 1.9126294474085161 -7.258416248248168 -5.3816656111422
H 3.0718096647377635 -7.325481019887361 -4.390031206355083
O -0.11636614343573815 -9.063172768202 -1.632691982900646
H -0.24738898884537353 -8.66360775793788 -0.7596810016103769
H -1.0163434536960305 -9.221200599167027 -1.9552287869356832
O -0.9767092177189616 -6.918008577415649 5.5017810367920035
H -0.5236521404072314 -7.769635796086269 5.4099239629375795
H -1.235755836404989 -6.890169817886928 6.4350986660668585
O 2.249399608374826 0.28009318266036304 -7.564833597697186
H 2.342629498320958 0.2899800159467703 -6.6003763435649985
H 1.662942910751875 1.02867888421917 -7.750978523856592
O 6.619249177608273 0.23084851009132268 -3.1827065170122024
H 6.843214273655317 0.142451648877866 -4.121318783914915
H 5.8932397183099114 0.8725717923742439 -3.174741701550712
O 7.38035568024684 2.480845729979584 -2.193894401986579
H 6.9572240768835805 2.4040006979446984 -1.3255500899842512
H 6.804189261660633 3.088001870547573 -2.6821111810551868
O 2.2315634037798335 3.0342515378952495 -7.354402798981618
H 2.076575739388834 2.7260915200051006 -6.448873349344242
H 2.774375759148307 3.8289668409569098 -7.241512240302237
O -9.177589503650077 1.7203812413383206 -4.254561955938701
H -8.835783767336094 1.4245553310071466 -3.397460313016703
H -8.488630630590091 2.31403767182103 -4.589031174370599
O 7.220324785621008 5.16960299674677 -8.5509367710689
H 6.554502070624533 5.618276493419332 -8.008406069192647
H 7.961568460926556 5.028863209482022 -7.942897240774856
O -3.907457664230134 -4.199018697263666 -4.356142184577669
H -4.0815841381381786 -3.2507266052815518 -4.453041288126346
H -4.022580163971929 -4.5508331005226506 -5.251650632339454
O 3.9507198287746235 7.553414580951871 5.834023124691496
H 3.723503457001935 7.082204156302659 6.649682865637661
H 3.354211025777245 7.174616684662168 5.170961026533917
O 10.438338371898386 -0.8587997023370342 0.013162636412327455
H 10.533014141184859 -1.1622731186175876 -0.9022103701926438
H 9.479998744145934 -0.8383752326929894 0.1550426674915849
O -6.768549843748345 -4.797722287383894 4.67703310684012
H -6.03637283791425 -4.831735055279292 4.043213478990119
H -7.265588470858656 -5.611417455532304 4.504363709458222
C 11.098182181553499 5.61981908977492 -4.271766105868835
O 10.878158233224658 4.443288911738776 -4.258184514208586
O 11.31820612988234 6.796349267811063 -4.285347697529083
O -6.3717748095844735 -4.168859273639324 9.862186181699975
H -6.573833152628311 -4.13156252541875 10.809154362516283
H -7.045137150939898 -3.6021898978095988 9.456685355509583
O -14.744161801132392 0.10895474738683397 1.3973020891566001
H -15.153445495900458 -0.2017968301393025 0.5757866168969366
H -14.918573394070732 -0.6039902874698624 2.029956748368001
O -15.014944058304632 4.508065314069622 -14.979681133679357
H -14.130757175009288 4.139462281599838 -15.125669889282488
H -14.899577289759701 5.4587222410279095 -15.127680661522279
O -8.946969315476537 -15.194038048423488 2.7938777116447246
H -8.010175616626466 -15.076476785709243 2.5757853637646617
H -8.947297005772002 -15.344969994557328 3.7510513555335026
O -8.312196796637204 -15.103156406250971 -12.016724004442263
H -7.374327451878923 -14.908639589576996 -12.163460697514234
H -8.305154900318929 -15.780069531048982 -11.323397979059953
O 6.9360828697523775 14.321792506724686 2.2865939666302912
H 6.736789678768279 14.576460946627734 1.3731425083443445
H 7.204806264257717 13.393372324828974 2.217415592883415
O 18.56205249524953 -6.7582153568648256 -1.709176362213194
H 18.38058338070678 -7.365975475513576 -2.441749877668899
H 18.691842287604175 -7.3424199225711035 -0.9470598491336792
O 13.360045228038066 11.073750061496977 -9.85870863231678
H 13.323124036032144 10.225237110763135 -9.392200374171427
H 13.584297463063601 10.830543512356009 -10.76949041399722
O 9.249236984279406 -9.252977677342544 13.073416186848396
H 9.25552021059022 -9.205859664720116 12.105579542133162
H 9.618540928427581 -8.40140050636881 13.351611914732509
O -1.066900092653086 14.034702124543749 1.977523354502229
H -0.47204289437549507 14.657107730253344 2.4221844980020943
H -0.6701177450983711 13.167697277768447 2.15023209382107
O 4.59545022388272 14.182286354064289 3.0892106588009183
H 3.8258450141928844 14.714669306263968 2.8377279152072115
H 4.93998373617574 14.627012656242341 3.878182850552993
O 6.614977555188084 -2.4247285831509675 10.173982572836774
H 6.001192015329453 -3.1316220274625977 10.424055214982387
H 6.120278686152039 -1.9046229232606242 9.523040888947587
O -3.734800550975296 17.93539568172328 5.684678067791923
H -4.599898187287074 17.941327848812584 5.24817119964275
H -3.148281274511065 18.370495793883343 5.047775426068581
O 2.7382751375849264 -25.070027718805104 -4.034727285191961
H 1.9913942253094472 -25.687113119473743 -4.016237610771464
H 2.3745368008311196 -24.251186826567718 -3.665734114692217
O -0.11422608003480789 9.56619459989588 1.6358518971901281
H 0.8484768376920404 9.541036112098102 1.5284391437949032
H -0.44756144735708403 9.06334175038361 0.8775719429980677
O 8.933517424472047 1.1637911718119431 11.800040452686792
H 9.187529178070175 1.9084347086943474 12.365682909467813
H 9.777008253256925 0.7453440106667433 11.571158082493458
O -1.1099671373271163 -2.161040341312734 -6.773831688730579
H -1.2545716002119325 -2.2756355839272238 -5.822556315043275
H -0.33852704549072377 -2.7164463446441034 -6.9618909891412
O 3.368848642401189 -8.202166621339238 1.3212719971141156
H 2.734649659016014 -7.918371137135426 0.6458320445507986
H 3.908930380362723 -7.413696990013134 1.481238559548041
O 10.093945156119963 -10.660953140037037 -3.0793572080042817
H 9.346785466427468 -11.099983542934435 -3.512914655559232
H 10.704141550607387 -11.385246435214267 -2.8743656788723233
O 3.9971084496310234 -2.7993062268689757 -15.702121942805862
H 4.736516013560843 -3.001563555674413 -15.109386095865709
H 3.2991753091060443 -2.486216532303022 -15.107289093331712