194

C -5.0710522388059704 1.0783507462686561 0.47044029850746183
C -3.8153522388059704 0.1782507462686569 0.19534029850746193
C -4.11845223880597 -1.3219492537313435 0.5608402985074619
C -2.96945223880597 -2.3874492537313436 0.7034402985074619
C -2.52015223880597 0.7359507462686565 0.7384402985074618
C -2.20305223880597 0.7852507462686571 2.097440298507462
C -1.5755522388059702 1.205650746268656 -0.18965970149253808
C -0.9533522388059701 1.2695507462686564 2.508640298507462
H -2.91125223880597 0.4298507462686567 2.840840298507462
C -0.32655223880597006 1.6562507462686575 0.21554029850746192
H -1.7850522388059702 1.178550746268657 -1.2573597014925382
C 0.004447761194029898 1.6956507462686563 1.569740298507462
H -0.7158522388059702 1.2676507462686573 3.5705402985074617
H 0.3943477611940298 1.9193507462686572 -0.5551597014925382
C -1.76045223880597 -2.1592492537313435 -0.1734597014925381
C -0.5287522388059701 -1.936549253731343 0.464840298507462
C -1.8068522388059702 -2.121249253731343 -1.5681597014925381
C 0.6114477611940299 -1.614449253731343 -0.2582597014925381
H -0.4544522388059702 -1.954049253731343 1.5506402985074619
C -0.6479522388059701 -1.8270492537313432 -2.2998597014925384
H -2.74345223880597 -2.290549253731343 -2.092259701492538
C 0.5698477611940298 -1.5506492537313434 -1.6506597014925382
H 1.5072477611940298 -1.351949253731343 0.2991402985074618
H -0.7173522388059701 -1.7640492537313435 -3.3840597014925375
C 1.7791477611940298 -1.082849253731343 -2.4255597014925376
H 1.4739477611940297 -0.9102492537313429 -3.464259701492538
H 2.1252477611940295 -0.1337492537313434 -2.0010597014925384
C 1.3965477611940298 2.0964507462686566 1.997440298507462
H 1.51704776119403 1.8448507462686567 3.057640298507462
H 2.1256477611940294 1.5207507462686571 1.4165402985074618
C 3.94864776119403 -1.4275492537313434 -3.522959701492538
H 4.81734776119403 -2.087049253731343 -3.615159701492538
H 3.4305477611940303 -1.3641492537313429 -4.484459701492538
H 4.26984776119403 -0.441449253731343 -3.176459701492538
C 2.60904776119403 -3.4296492537313434 -2.8992597014925376
H 1.9825477611940296 -3.869549253731343 -2.119359701492538
H 2.06294776119403 -3.373349253731343 -3.845759701492538
H 3.5215477611940305 -4.019849253731343 -3.0234597014925377
C 3.7281477611940304 -2.060049253731343 -1.156659701492538
H 3.9048477611940298 -1.032549253731343 -0.8295597014925382
H 3.12924776119403 -2.623249253731343 -0.4404597014925382
H 4.68244776119403 -2.5769492537313434 -1.3005597014925383
C 3.1110477611940297 3.755250746268656 2.588740298507462
H 3.40124776119403 4.809350746268656 2.534540298507462
H 2.9823477611940303 3.461750746268656 3.634840298507462
H 3.86514776119403 3.1392507462686563 2.091540298507462
C 1.99744776119403 3.9574507462686572 0.40494029850746194
H 2.67914776119403 3.230350746268657 -0.04295970149253803
H 1.03214776119403 3.981150746268657 -0.10175970149253821
H 2.4399477611940297 4.958250746268657 0.368240298507462
C 0.7418477611940297 4.4992507462686575 2.475440298507462
H -0.18475223880597014 4.424250746268656 1.901240298507462
H 0.57844776119403 4.189650746268656 3.511940298507462
H 1.1210477611940297 5.524350746268658 2.4432402985074617
N 3.00114776119403 -2.025349253731343 -2.490159701492538
N 1.7831477611940298 3.586450746268657 1.862540298507462
C -3.55075223880597 -3.8435492537313434 0.6444402985074619
H -2.62515223880597 -2.2736492537313433 1.7424402985074618
H -4.67195223880597 -1.3478492537313436 1.5102402985074619
H -4.83415223880597 -1.6757492537313432 -0.1945597014925382
H -3.7169522388059697 0.17335074626865676 -0.900559701492538
H -3.9132522388059705 -4.043149253731343 -0.34225970149253815
H -4.35435223880597 -3.9354492537313432 1.3449402985074619
H -2.78115223880597 -4.545049253731343 0.8904402985074619
H -5.24235223880597 1.138950746268657 1.5249402985074618
H -5.92805223880597 0.6501507462686567 -0.006059701492538094
H -4.89895223880597 2.059650746268657 0.08004029850746197
C 1.571819865397286 1.5186846508413554 -3.7906485486948776
O 2.7686707994438984 1.7347380264706738 -3.678201765055116
O 0.7919213427042164 1.3222827621810105 -2.8515979342273625
O 0.9553052891439552 1.463009341838108 -4.860909461572933
O 1.2313192950697425 -8.328842099338145 -5.765538445036389
H 1.1989512015600052 -7.372197104464237 -5.9163695333612045
H 0.3281749747100273 -8.554000490967885 -5.496102034021293
O -4.090501830442179 -0.3123929071204272 -9.327873834018902
H -4.09595196994546 -1.0093630944648386 -8.654694652201393
H -4.902349847686423 0.18725742970800585 -9.154051274770048
O 0.7287045340736413 5.55026280040957 -1.7283876971678984
H 1.031757372617204 6.0657193672707646 -0.965871558564682
H -0.21792329442872171 5.7495794903667345 -1.7843390663148369
O -5.91134430154058 -3.176868180852047 -8.991849008599102
H -5.8834204710095275 -2.32216871466548 -8.536133703733364
H -6.674280928838579 -3.6268288087828564 -8.598879441915797
O -0.03556318042486062 -2.408234706954705 6.429258044782044
H -0.5461273293129272 -3.2290806849832894 6.496366070565131
H 0.2925157282210833 -2.41053636063469 5.5174900499544
O -4.478503665151833 -0.1709562466801569 -5.286436452493659
H -4.752077111207707 0.6756484694334062 -4.902528415110501
H -5.312673951805811 -0.5921898302419188 -5.542725635338614
O 8.29062366661978 -1.7435847473588177 -3.8762382448158146
H 8.183591335541509 -0.8013622075030271 -3.67691909773843
H 8.290693116260123 -2.1685108129090453 -3.0053767298246257
O 6.973948976829772 0.21390025606896668 7.037387334729157
H 6.353505560755553 0.26881596342419645 7.779682147748775
H 7.398766837722828 1.0846873895004245 7.022504538739447
O 5.22532687065777 -2.516418191329741 4.082595995740668
H 5.157847033060596 -2.6652421900258867 5.037721770615343
H 6.175478973444914 -2.578040902274995 3.902663876971045
O -7.187141108912503 -3.6916310967284764 3.8846150400726174
H -6.543386280242917 -2.9676154953017733 3.9032828293183353
H -6.73660012921138 -4.3927370780095725 3.3902212972705628
O 5.59242883520736 2.198355141424437 8.986336621706595
H 5.162504881293563 2.069801285738151 9.845176919398384
H 6.538358282795134 2.132365968677381 9.185898275253686
O -6.345907729020064 1.2256756284408223 3.487035870944556
H -5.805373039888299 2.023205538961227 3.5906488458586168
H -6.269907523099845 0.7785354954773007 4.343336994669994
O 1.4726336497964305 6.3293006720582365 -5.117039634347334
H 2.1690201342112916 6.4031515721887216 -5.786785306803848
H 0.8477683353281176 7.032112200447643 -5.350623106873458
O 0.7133667320255936 4.729119839937402 6.2071108358446985
H 0.7135499202628584 4.60089022531621 7.16759221998297
H 0.2781093967777084 3.9338849724973373 5.864890874386441
O -0.13757726055661745 -8.769985796877727 -2.3275336954063137
H -0.1206332512699353 -9.157888115080553 -1.4397206244380112
H 0.23907931596079068 -7.885792614434532 -2.2038640395195186
O -0.9573517364318636 2.5274048533707925 -11.067753784902326
H -0.6186743551047638 1.9260961915788477 -11.747969104879317
H -0.2776275930208816 3.215039841855228 -11.00376038074052
O 0.2118381359079744 -5.4565648429936076 2.2784225979887087
H 0.45594589500606864 -5.3338499705043745 3.2081106203478544
H 0.7005057332412223 -4.760347450137691 1.8142596249916603
O 3.9474201293172886 0.627045576102021 -7.939505420246864
H 3.1600965338221885 0.06216604038110929 -7.939657079061586
H 3.765728269080215 1.281607199892695 -7.248492328558937
O -6.76192088472188 6.472630655237945 -2.725865581110066
H -5.807924538910712 6.622915639512154 -2.805066291843245
H -6.920562311080856 5.685025793913254 -3.267597456266496
O -5.329601026958289 4.193038975227305 -0.13044230773674093
H -4.833829090063839 4.984145843220145 -0.3899176763220571
H -5.210886458918857 4.147019309599177 0.8301569770905406
C -4.700153646593375 1.1563200054139875 8.097621857279728
O -3.5610729579193654 1.362334540612435 8.402370037384078
O -5.839234335267383 0.9503054702155405 7.792873677175378
O 12.770653127863895 12.349715248069655 -14.241015300743848
H 12.705381255398024 12.35825451061044 -13.274250582438478
H 12.372715360995857 13.191320758998026 -14.509916103968896
O 8.190312965307427 12.902164914759647 17.285925648514556
H 7.80602094790038 12.012657821310732 17.293933954283517
H 7.710181399573671 13.358202132432305 16.57848965848901
O -1.5827787172557988 1.9672930721976059 19.299877918014488
H -1.4344300274756454 1.2718565356126756 18.641601344890944
H -1.1777783440781964 2.7539012825330946 18.904676494106617
O -14.371796921614587 -8.27456391982689 -1.0866661541367368
H -14.285618417647665 -8.435785353416405 -2.0382691552382295
H -13.474926201995402 -8.407219197747754 -0.7446318958679157
O -9.877616916857955 2.105343145229376 -2.4647337451771536
H -9.738489074058268 1.320792099590221 -3.016177719706222
H -9.001679670969649 2.2885216315822374 -2.0930597916868923
O -7.805543901088454 5.646031063690856 -7.865960999945472
H -7.238549835929576 5.558933146169452 -7.085000668214056
H -7.282741681871799 5.251273520476408 -8.579968188955103
O -7.027296411548332 -3.097393547849681 -12.791866550167345
H -6.45810485286144 -3.5516826347080723 -12.152640649580585
H -6.445931626475162 -2.936927569588313 -13.550304155246003
O -0.8503014029728875 -9.58613270315476 9.058080304618647
H -1.3661842583980732 -8.802098452206575 8.81699415877348
H -0.634426890379916 -9.99519456592956 8.206594232192353
O -15.282918151920974 -8.984348820651755 11.195682524103455
H -15.027356126559482 -8.799901854336294 12.111998367418497
H -14.467273091972999 -8.842505323930503 10.692129644139147
O 8.133600560863137 12.258876682136089 -7.61069746421562
H 7.75445624466389 11.408305335178387 -7.87855064812122
H 7.871384894193949 12.865558927256245 -8.319316926204351
O 3.9483652272205263 -2.37430186166678 -8.618840265302861
H 4.510017082926915 -1.9293100954052633 -9.271141482411208
H 4.3652850875746605 -3.2414127396715138 -8.503694707037914
O -12.40689369564904 -7.212573791945818 8.863508688469718
H -13.081324557418473 -7.760031889207576 8.43409047584305
H -12.780786900797363 -6.318932581325978 8.839608853202048
O 1.6320759205887128 -11.860480273203777 -17.06985180647515
H 2.597278662973756 -11.817972938181407 -16.99539276094213
H 1.319505311238373 -11.184437357358004 -16.449990907236376
O 7.195786276788579 7.946436074599572 17.279828270396525
H 7.471415179573919 7.760035891554247 16.369745287031808
H 7.716396794595034 8.7253760536676 17.527172447726
O -8.713662166073808 8.648060938760826 6.106565194252628
H -8.652868034680909 8.599569755144232 7.072443051747894
H -8.537095874255423 9.579793102211756 5.9074133313827195
O -6.5002257325335435 13.156408113026352 -7.937539656987389
H -7.086892790405289 13.341441720666548 -8.686239653081797
H -7.079598379163192 12.735772429999827 -7.284581080351655
O -9.662856195015184 16.546021518725716 9.594529702194889
H -9.298458191008532 17.41326592553327 9.82705623925459
H -10.601077506174871 16.72306834550195 9.429129772587093
O 3.7336982134665875 -7.233938287310417 6.793225006537907
H 3.2884940203148387 -7.707947904563483 7.511608933175817
H 3.777146137897044 -7.8837233693789655 6.075692032184912
O 1.0732823534644627 7.78268531230391 -13.597205563498525
H 1.247973844419182 7.085430788063501 -12.947369916342797
H 0.30388626987415424 8.249742823358048 -13.238250284635257
O 10.199434889349423 14.984011855212815 5.77276722875675
H 9.55604929539599 14.881874945654902 6.490116785178966
H 9.806019778868524 14.49545687019158 5.034187157433267