194

C -5.0710522388059704 1.0783507462686561 0.47044029850746183
C -3.8153522388059704 0.1782507462686569 0.19534029850746193
C -4.11845223880597 -1.3219492537313435 0.5608402985074619
C -2.96945223880597 -2.3874492537313436 0.7034402985074619
C -2.52015223880597 0.7359507462686565 0.7384402985074618
C -2.20305223880597 0.7852507462686571 2.097440298507462
C -1.5755522388059702 1.205650746268656 -0.18965970149253808
C -0.9533522388059701 1.2695507462686564 2.508640298507462
H -2.91125223880597 0.4298507462686567 2.840840298507462
C -0.32655223880597006 1.6562507462686575 0.21554029850746192
H -1.7850522388059702 1.178550746268657 -1.2573597014925382
C 0.004447761194029898 1.6956507462686563 1.569740298507462
H -0.7158522388059702 1.2676507462686573 3.5705402985074617
H 0.3943477611940298 1.9193507462686572 -0.5551597014925382
C -1.76045223880597 -2.1592492537313435 -0.1734597014925381
C -0.5287522388059701 -1.936549253731343 0.464840298507462
C -1.8068522388059702 -2.121249253731343 -1.5681597014925381
C 0.6114477611940299 -1.614449253731343 -0.2582597014925381
H -0.4544522388059702 -1.954049253731343 1.5506402985074619
C -0.6479522388059701 -1.8270492537313432 -2.2998597014925384
H -2.74345223880597 -2.290549253731343 -2.092259701492538
C 0.5698477611940298 -1.5506492537313434 -1.6506597014925382
H 1.5072477611940298 -1.351949253731343 0.2991402985074618
H -0.7173522388059701 -1.7640492537313435 -3.3840597014925375
C 1.7791477611940298 -1.082849253731343 -2.4255597014925376
H 1.4739477611940297 -0.9102492537313429 -3.464259701492538
H 2.1252477611940295 -0.1337492537313434 -2.0010597014925384
C 1.3965477611940298 2.0964507462686566 1.997440298507462
H 1.51704776119403 1.8448507462686567 3.057640298507462
H 2.1256477611940294 1.5207507462686571 1.4165402985074618
C 3.94864776119403 -1.4275492537313434 -3.522959701492538
H 4.81734776119403 -2.087049253731343 -3.615159701492538
H 3.4305477611940303 -1.3641492537313429 -4.484459701492538
H 4.26984776119403 -0.441449253731343 -3.176459701492538
C 2.60904776119403 -3.4296492537313434 -2.8992597014925376
H 1.9825477611940296 -3.869549253731343 -2.119359701492538
H 2.06294776119403 -3.373349253731343 -3.845759701492538
H 3.5215477611940305 -4.019849253731343 -3.0234597014925377
C 3.7281477611940304 -2.060049253731343 -1.156659701492538
H 3.9048477611940298 -1.032549253731343 -0.8295597014925382
H 3.12924776119403 -2.623249253731343 -0.4404597014925382
H 4.68244776119403 -2.5769492537313434 -1.3005597014925383
C 3.1110477611940297 3.755250746268656 2.588740298507462
H 3.40124776119403 4.809350746268656 2.534540298507462
H 2.9823477611940303 3.461750746268656 3.634840298507462
H 3.86514776119403 3.1392507462686563 2.091540298507462
C 1.99744776119403 3.9574507462686572 0.40494029850746194
H 2.67914776119403 3.230350746268657 -0.04295970149253803
H 1.03214776119403 3.981150746268657 -0.10175970149253821
H 2.4399477611940297 4.958250746268657 0.368240298507462
C 0.7418477611940297 4.4992507462686575 2.475440298507462
H -0.18475223880597014 4.424250746268656 1.901240298507462
H 0.57844776119403 4.189650746268656 3.511940298507462
H 1.1210477611940297 5.524350746268658 2.4432402985074617
N 3.00114776119403 -2.025349253731343 -2.490159701492538
N 1.7831477611940298 3.586450746268657 1.862540298507462
C -3.55075223880597 -3.8435492537313434 0.6444402985074619
H -2.62515223880597 -2.2736492537313433 1.7424402985074618
H -4.67195223880597 -1.3478492537313436 1.5102402985074619
H -4.83415223880597 -1.6757492537313432 -0.1945597014925382
H -3.7169522388059697 0.17335074626865676 -0.900559701492538
H -3.9132522388059705 -4.043149253731343 -0.34225970149253815
H -4.35435223880597 -3.9354492537313432 1.3449402985074619
H -2.78115223880597 -4.545049253731343 0.8904402985074619
H -5.24235223880597 1.138950746268657 1.5249402985074618
H -5.92805223880597 0.6501507462686567 -0.006059701492538094
H -4.89895223880597 2.059650746268657 0.08004029850746197
C -2.662949836833964 3.8016999311961834 -0.22552821847862897
O -1.599772815559915 3.2964152361856813 0.10022858808568941
O -3.1569652752361437 3.7544915677208666 -1.3579378533450432
O -3.4093876713939713 4.4384491231756025 0.5268210422048156
O -5.885969939233868 0.08224011018547639 -5.530961271667858
H -5.620941559881892 0.7043414686083311 -4.836902761968203
H -5.256173704175286 -0.6488977104332627 -5.442892356227079
O -2.3733557004090615 -1.5179900520626637 10.492223806442833
H -2.99454264888162 -1.40828661665747 9.756656482394483
H -1.5616849797978098 -1.0915403944975561 10.178706222940704
O 8.105625672215885 -3.7239547459939586 4.7840009401143515
H 8.0948599249948 -3.746565318585657 5.7526805659937486
H 7.7345159487098805 -4.581006881627213 4.525735274131094
O -0.5110563613648438 8.779210860865112 -2.423972539576524
H -0.6987577387028314 9.418183535237898 -1.720090822772975
H -0.040744745794725645 9.29921523304985 -3.0928255738587795
O -2.2297333718513266 2.5281766215119994 -3.808930323709068
H -2.2269348178892305 2.4672707539523215 -4.776013567433478
H -1.3233516827942893 2.2957156187720176 -3.557144580968869
O -7.931543929769482 5.728894016095554 3.662532237736511
H -8.130424166905717 6.187232470656444 4.492797176926025
H -7.373261901366075 4.984806914696522 3.9338577002227373
O -1.4661991776690304 -4.828654152296018 -3.487595714179259
H -2.1113231756037623 -4.369488681492352 -2.929071359642809
H -0.8773828341674652 -5.265770553388432 -2.85420285834533
O -2.215077517529985 10.817423999122681 0.37991371544371866
H -2.8616257660589643 10.10203940767892 0.4756613292466274
H -1.5667303192446487 10.641979612460009 1.0783599352517377
O 0.4727263699199197 0.6262708829652519 -9.463449302992544
H -0.36158345920224666 1.0865844174517418 -9.63953427083108
H 1.0172721150256878 1.291543250291023 -9.016409536237987
O -7.119673366443026 -1.9915785590841242 9.810401834182736
H -6.95183936779129 -2.531215046216324 9.023260444372628
H -8.032102621760378 -1.6864911058589933 9.694831750572723
O -4.940324018097883 -1.5911053139248608 5.98551590309332
H -5.048875000097518 -0.7511818029315616 6.456379510614229
H -5.013946513497982 -2.2609842140916623 6.681794533802593
O 7.978723150441587 -6.3115336249279 -2.2806442817742822
H 7.676870371263621 -5.393444160191655 -2.351099880152635
H 7.508837950159892 -6.767863011177423 -2.9947404476380717
O 4.37098400395303 7.467733571418323 0.5378280023789499
H 4.566429012309331 8.344990907807047 0.9000270793528811
H 5.127373954019405 6.927566981658405 0.8117919471704619
O -2.4422939205088667 -5.2450544772787735 3.4072758551176565
H -1.9477582206023794 -5.506374206675253 4.1985493839597074
H -2.52290464871054 -6.066550859689409 2.8997253172546444
O -6.3208751330283475 3.8514704844377463 -4.865920688161681
H -6.905652889186572 3.5177641362521253 -4.1690402063119105
H -6.665106147320673 3.4444685567665467 -5.675127944661032
O -2.18373395608279 -0.11256452048844423 4.882991574955799
H -2.6508224247545504 -0.9180654751182318 4.614730635897628
H -1.3927923510098814 -0.4406909089955292 5.336540243601171
O -0.9737167306376637 4.170967490139271 -9.471747326021145
H -0.9310899910142476 3.2600721122693948 -9.799497121664674
H -1.365093785632416 4.666181526097203 -10.20696770367256
O 4.3645127008129805 -7.31850163051797 4.869173877759873
H 4.637024758923775 -7.3187379764389195 5.799068753122042
H 3.6120565404272136 -7.928597797904805 4.845629503964771
O -3.090486405156189 -7.224715336475811 -4.744621541255644
H -4.01264361933466 -6.936462590908146 -4.8188090328651185
H -2.9516384196549903 -7.770321866964146 -5.533289212147979
O 6.334547814007028 1.4978270960505333 -2.3359843319337705
H 6.101398782890656 1.6652089878224432 -3.2615069888667896
H 6.811117832144746 2.297305393902511 -2.0663968445091543
C -2.070807124902012 -16.483306536357667 -0.11119118635790759
O -2.0214384621267634 -16.176751093240117 -1.2672209233157368
O -2.120175787677261 -16.789861979475212 1.0448385505999216
O 2.6964978957400536 -5.852901307662974 -4.711431155286499
H 2.6288795691573923 -5.882021624607214 -5.677633580221993
H 1.7921935232155741 -6.024007895784398 -4.40825120602443
O -0.6216304836367605 -2.838616162416807 -13.708817307640267
H 0.03288733739620442 -2.1326217475578346 -13.598609934755345
H -1.3846709801350792 -2.390775812125473 -14.104001018912044
O 2.8587238409304963 -7.2860223854766515 -13.365463726196452
H 2.6549507637607848 -7.2353455073873985 -12.419485003418867
H 3.567656841027308 -7.944578686409233 -13.417228039924426
O 12.120830519136218 -0.9211410564487452 -1.6054547114379565
H 12.762716916457897 -1.13731724434974 -0.9124777525006529
H 12.48731880491017 -0.12820025821789294 -2.0248509097892136
O 5.924826759557259 -8.568049090348904 -16.377461366297993
H 6.539119454068603 -7.874969139100143 -16.09241396050904
H 5.328087370986661 -8.113968427092136 -16.99119974515716
O -3.19998889974734 -6.228424225450365 13.668185475498493
H -3.6122192193795692 -6.276108963810103 12.792537323439987
H -2.8444285360373134 -5.328021661806238 13.71077650086157
O 7.197075272740362 -12.073292639487189 -1.9499804724983334
H 7.470732256155326 -11.358258515149258 -2.5439547256107975
H 7.988439543469023 -12.626707063906043 -1.8697494924517137
O 4.78579066207865 -8.992374876707217 -11.830018877084264
H 5.329078800665263 -8.19857755371961 -11.94702813051665
H 5.3060883407270625 -9.545464089007737 -11.228068220360754
O 1.6938307644030375 -13.837831408956673 -10.411959984660196
H 1.2178918540461856 -14.053062874569799 -9.595795217766675
H 2.051777764830162 -14.689073563839832 -10.705596976429106
O -0.05619671284761796 0.03222368373655504 15.269828913481076
H -0.7063651522577348 0.28175419848192407 15.943611429954991
H 0.28983602379116613 0.880111966376449 14.953113347655453
O -15.262075664815713 -2.7252600839699834 15.66261798123601
H -15.587602951272732 -2.1084066372015684 16.335292618695952
H -15.30946356001072 -2.218655800705509 14.837955364242207
O 12.236223428950876 4.102561374500173 -17.55573879149581
H 12.107928987814692 3.867053102551914 -18.486890630412265
H 13.12091758885861 3.765694991636524 -17.348859049081263
O -10.78151254573913 -6.0691533286074835 -7.5928248970042045
H -10.968614247306931 -6.077562721088675 -8.543555980060045
H -9.975200198492784 -6.599879436079203 -7.508254560443428
O 15.903928400349079 12.307452078711599 12.106506360222117
H 15.929410283553297 12.321067306271605 11.137933876560282
H 15.1431968704574 12.86510000208643 12.328493470848846
O 14.804258016618702 10.008533230856566 -14.611063113072866
H 14.576832818576403 10.0850899878606 -13.672242470376696
H 13.950724394743725 9.868852885608774 -15.048020435680506
O 13.538245865224429 -8.409332730899106 -3.149187206842499
H 14.44998975171014 -8.737491148926352 -3.1476076392476355
H 13.608921957360169 -7.52000939981755 -2.7709401353476544
O 13.420723659687518 7.376625142797465 -16.021763826212446
H 14.147491656778735 8.017494847337973 -16.013911622306075
H 13.857177640226398 6.5258491137465615 -15.864760591965052
O 5.042741527867587 3.266879352906333 -14.523526040875373
H 5.844862381238357 3.8103490743554893 -14.538022776912298
H 4.538516978825005 3.613792274542478 -13.772279760854847
O 7.314271283618451 7.03129327554871 -0.7624009965250922
H 7.521785076586667 7.618209639509621 -1.5049873984628386
H 6.440115997481952 6.675691601886514 -0.9823144561137624
O 10.03635197560128 -11.715901398697978 3.594594773797022
H 10.569848353013857 -12.521329330958224 3.519529348182801
H 9.74639095509307 -11.712543169407038 4.519188345687864