194

C -5.0710522388059704 1.0783507462686561 0.47044029850746183
C -3.8153522388059704 0.1782507462686569 0.19534029850746193
C -4.11845223880597 -1.3219492537313435 0.5608402985074619
C -2.96945223880597 -2.3874492537313436 0.7034402985074619
C -2.52015223880597 0.7359507462686565 0.7384402985074618
C -2.20305223880597 0.7852507462686571 2.097440298507462
C -1.5755522388059702 1.205650746268656 -0.18965970149253808
C -0.9533522388059701 1.2695507462686564 2.508640298507462
H -2.91125223880597 0.4298507462686567 2.840840298507462
C -0.32655223880597006 1.6562507462686575 0.21554029850746192
H -1.7850522388059702 1.178550746268657 -1.2573597014925382
C 0.004447761194029898 1.6956507462686563 1.569740298507462
H -0.7158522388059702 1.2676507462686573 3.5705402985074617
H 0.3943477611940298 1.9193507462686572 -0.5551597014925382
C -1.76045223880597 -2.1592492537313435 -0.1734597014925381
C -0.5287522388059701 -1.936549253731343 0.464840298507462
C -1.8068522388059702 -2.121249253731343 -1.5681597014925381
C 0.6114477611940299 -1.614449253731343 -0.2582597014925381
H -0.4544522388059702 -1.954049253731343 1.5506402985074619
C -0.6479522388059701 -1.8270492537313432 -2.2998597014925384
H -2.74345223880597 -2.290549253731343 -2.092259701492538
C 0.5698477611940298 -1.5506492537313434 -1.6506597014925382
H 1.5072477611940298 -1.351949253731343 0.2991402985074618
H -0.7173522388059701 -1.7640492537313435 -3.3840597014925375
C 1.7791477611940298 -1.082849253731343 -2.4255597014925376
H 1.4739477611940297 -0.9102492537313429 -3.464259701492538
H 2.1252477611940295 -0.1337492537313434 -2.0010597014925384
C 1.3965477611940298 2.0964507462686566 1.997440298507462
H 1.51704776119403 1.8448507462686567 3.057640298507462
H 2.1256477611940294 1.5207507462686571 1.4165402985074618
C 3.94864776119403 -1.4275492537313434 -3.522959701492538
H 4.81734776119403 -2.087049253731343 -3.615159701492538
H 3.4305477611940303 -1.3641492537313429 -4.484459701492538
H 4.26984776119403 -0.441449253731343 -3.176459701492538
C 2.60904776119403 -3.4296492537313434 -2.8992597014925376
H 1.9825477611940296 -3.869549253731343 -2.119359701492538
H 2.06294776119403 -3.373349253731343 -3.845759701492538
H 3.5215477611940305 -4.019849253731343 -3.0234597014925377
C 3.7281477611940304 -2.060049253731343 -1.156659701492538
H 3.9048477611940298 -1.032549253731343 -0.8295597014925382
H 3.12924776119403 -2.623249253731343 -0.4404597014925382
H 4.68244776119403 -2.5769492537313434 -1.3005597014925383
C 3.1110477611940297 3.755250746268656 2.588740298507462
H 3.40124776119403 4.809350746268656 2.534540298507462
H 2.9823477611940303 3.461750746268656 3.634840298507462
H 3.86514776119403 3.1392507462686563 2.091540298507462
C 1.99744776119403 3.9574507462686572 0.40494029850746194
H 2.67914776119403 3.230350746268657 -0.04295970149253803
H 1.03214776119403 3.981150746268657 -0.10175970149253821
H 2.4399477611940297 4.958250746268657 0.368240298507462
C 0.7418477611940297 4.4992507462686575 2.475440298507462
H -0.18475223880597014 4.424250746268656 1.901240298507462
H 0.57844776119403 4.189650746268656 3.511940298507462
H 1.1210477611940297 5.524350746268658 2.4432402985074617
N 3.00114776119403 -2.025349253731343 -2.490159701492538
N 1.7831477611940298 3.586450746268657 1.862540298507462
C -3.55075223880597 -3.8435492537313434 0.6444402985074619
H -2.62515223880597 -2.2736492537313433 1.7424402985074618
H -4.67195223880597 -1.3478492537313436 1.5102402985074619
H -4.83415223880597 -1.6757492537313432 -0.1945597014925382
H -3.7169522388059697 0.17335074626865676 -0.900559701492538
H -3.9132522388059705 -4.043149253731343 -0.34225970149253815
H -4.35435223880597 -3.9354492537313432 1.3449402985074619
H -2.78115223880597 -4.545049253731343 0.8904402985074619
H -5.24235223880597 1.138950746268657 1.5249402985074618
H -5.92805223880597 0.6501507462686567 -0.006059701492538094
H -4.89895223880597 2.059650746268657 0.08004029850746197
C 2.7238234505103027 -1.2446151803227237 2.981755530059705
O 3.206550751375701 -1.4822962240801725 1.8852804628385775
O 3.265469471801852 -1.486936691394923 4.06643582258406
O 1.6189484665994458 -0.7249762638587538 3.176370665196043
O -0.9794954375117484 3.3004156548572086 -3.4694125357248753
H -1.0897424819401718 3.3687224631391413 -4.429697454921847
H -1.879403350124615 3.1564878983146545 -3.1401520096769144
O 0.3842441735476998 7.798896179358008 0.7642946303624064
H 0.2467254511003394 8.028587813909631 -0.16699356933382603
H 1.056288591902894 8.429328714360679 1.0640829938252596
O 3.530304861167493 -1.9517437784315632 -8.741024079622973
H 3.3238607157787508 -2.3074449409073368 -9.618420714417121
H 4.1400551553102405 -2.602598491914083 -8.362137995119436
O 6.079924153222305 -3.9897189849828276 3.395198991994833
H 6.006194370466263 -3.958197668838751 2.4295190850570876
H 6.369605602436952 -4.8960845932307295 3.578360086297946
O -3.791198445236545 8.544529010597019 2.268984314448436
H -3.465799095082901 8.3296755501031 1.381898856145023
H -3.010977285541508 8.891955718271719 2.7267086518595542
O 8.18326603024761 2.024722211721152 -5.188025494045844
H 8.195304565387532 1.9466585726970504 -6.1538041948018725
H 8.764062651967 2.778933082123313 -5.006908980534355
O -3.3566121674515257 -2.4965128564598933 -4.270341492764322
H -3.5065427478595907 -3.250231327213212 -3.6800901523983898
H -4.2105627871952525 -2.038856423943436 -4.28710076230727
O -4.813823134236594 1.4237202257811203 -7.694693779978173
H -5.029915106253787 0.4992332412184177 -7.500798365117784
H -5.519689956281292 1.7082417275802222 -8.294494987754966
O -4.291112459560011 4.109659174322873 -0.8791891038283226
H -3.852957243950361 4.133264365917664 -1.7431510004787687
H -5.226886471349152 3.980025023471362 -1.094790425932487
O -5.931503576303069 -3.0455275731083287 -6.025693758872797
H -6.897412594054379 -3.077300408314807 -5.955141556429202
H -5.7127833627969355 -2.1220301086738216 -5.830051622085071
O 6.730700778031219 0.2241592148388245 -5.253497676119268
H 6.0848735507307445 0.3459067028388614 -4.541421768267398
H 6.606634598195128 -0.697121480314685 -5.5270144179438665
O 7.044074688366807 -4.602359942763625 -2.5112797982833346
H 7.087553051515779 -4.984505529694803 -3.4006850710509933
H 6.382845068373229 -3.8985273072991573 -2.5910103143878302
O 6.714615839416596 0.8947630585265571 4.275169160177144
H 6.369612505262043 0.8321983104925792 5.17851057327946
H 6.359713992530521 0.10834486760834139 3.834087475712947
O -4.315177686856265 7.657056857003807 -7.249013264078077
H -5.128423853956312 8.140168284373134 -7.038772028012801
H -4.60615206173614 6.963818550770782 -7.860336834893429
O 8.600199833340788 -1.7996751470419543 7.597017639071865
H 8.5190630213015 -1.7380033834823827 6.633388681323316
H 8.118362936895055 -2.6099748341796207 7.821092551875912
O 1.2059108924671151 -3.460316234430599 -7.046023130850218
H 0.2528199852351421 -3.420269611432201 -7.216262219893128
H 1.5833877952830033 -2.8312923257976133 -7.679112425111782
O -0.2946678821470079 7.2076617183151725 -2.2132724362075473
H -0.9183230530211981 7.935174257514824 -2.357310938175464
H 0.2546226300789951 7.208737659795558 -3.0115460232868303
O -4.164835739612 -10.969781881623774 1.5390755498979902
H -4.640633106936312 -11.52615035004925 0.9042225358158777
H -4.0586271590346605 -10.125023085858286 1.0764047612279146
O -5.166491587976085 -3.910697935386527 8.422087893124463
H -5.211021398427413 -3.9642012221074125 7.455588099440455
H -6.0859734790827975 -4.02561319175933 8.705477166174093
O 2.1420207108207032 3.3153743198111907 -5.051619398166239
H 2.7952584331386614 4.016867126159288 -5.193590091207861
H 2.463591580878604 2.852084048391701 -4.263637009886996
C -20.017340138649413 -17.37621492479186 -1.8366405911489219
O -18.948070865853538 -17.400557512039104 -2.3741244681170492
O -21.086609411445288 -17.351872337544616 -1.2991567141807954
O 1.273953681799843 3.1024929128848284 10.935778796780127
H 0.5552371919660182 3.2458514670079515 10.301852705582839
H 1.8550139718815402 2.4671997059861397 10.491106529982936
O -1.9935723118252728 15.366554315975268 3.0122709110707913
H -2.66062955558416 15.552006999502945 2.3343260072466077
H -2.2560095032853216 14.504803052529537 3.369305117818893
O -3.5362528300839466 7.269673943779479 -1.7491564127224626
H -4.3297594054364055 7.43252122140756 -2.280941553490363
H -3.4020196444478743 8.100334973578027 -1.268588363692976
O 5.558977729338788 -11.156930750001171 -0.6638581633437242
H 6.482766831183516 -11.035381125061889 -0.9299535238632801
H 5.1975885325727536 -11.75191230529214 -1.3379180580299006
O -18.199535241912468 -5.3116163986432285 -3.6177681465273728
H -17.296272215524578 -5.65973420480175 -3.661325638373903
H -18.680998830073662 -5.974158103474559 -3.099894371429479
O 9.030802272076617 -7.633264999115928 3.771694657918639
H 8.33535276730731 -7.584714469343485 4.444717829343622
H 8.747837974000994 -8.358441791455606 3.1946229377949567
O 6.617870780900109 23.079459362769622 1.8095726934515106
H 7.2703932996275125 23.563481637675558 1.2814589208148508
H 7.074022360093525 22.91028187679639 2.6475862132345345
O 13.458061236506566 -9.144071772377497 1.8418534123791792
H 13.111159586727627 -9.34983056146007 0.9607802468611708
H 14.40228075727125 -9.351607626574188 1.7759723822584919
O -12.74279450967763 4.273988726741887 2.6147530025716246
H -13.583437110178792 4.122913202799439 2.1570811100676632
H -12.974360844847158 4.218304970582373 3.554028412670346
O 4.266954786828995 1.9590775889945626 -2.9678538818649445
H 4.631465219819291 2.4831792873738294 -3.6968373596593285
H 5.008465121469939 1.402549283962779 -2.6860727369685504
O 2.435597140907347 -15.752716573334757 -3.0097328692149565
H 3.18480417462728 -16.366646240200012 -2.9824099545224385
H 2.0619094363588486 -15.799582047329267 -2.1169153788416195
O -8.966209554572604 9.17542342808081 -9.42367493544289
H -9.68513529969783 8.531153472508745 -9.5075161797282
H -9.422073063191023 10.028453066839429 -9.36459159422521
O -11.09126771951204 9.30128432083627 6.740054537889137
H -11.465752415277688 9.626684350251743 7.572426684464046
H -11.439062921739987 9.911543967872316 6.072534047711749
O 8.164570578302172 4.475999162163904 8.778057316715453
H 8.991600061429478 4.929723089260025 8.55641754384367
H 7.687626521287457 5.114647558798901 9.329069599930529
O -10.210761373104773 13.356972533713096 -12.13382799168465
H -10.274166008230083 13.14980831745458 -13.07830149403748
H -10.851375878266927 14.072986771549612 -12.007738296264105
O -10.564273290832793 -7.791395326203453 -5.842377386309128
H -9.96955459142432 -8.54644534322637 -5.965570313328446
H -10.077680131431407 -7.045454647593478 -6.224164690339355
O 10.735863382880389 2.2216390133163406 15.82733212942988
H 10.629883848966216 2.126553794361849 16.78581765171371
H 9.860480805256119 2.5033380149538176 15.52186042931948
O 5.469851159555818 8.289468173102366 -20.487925155631057
H 5.733507609536925 7.8233286472290295 -21.29549346586985
H 5.1755779107859325 9.15695749857817 -20.80388000927941
O -8.574085543896988 -5.233022438141877 12.043044938794262
H -8.550928391546254 -5.245369572147671 11.074397091805045
H -8.183589286925326 -6.08261152239747 12.297353816942204
O -1.9601396096523667 -14.32770614963324 9.367972068902894
H -1.8078958505302403 -14.610227504144511 8.453657637783337
H -2.277336503486878 -13.41618002140941 9.281553364868344