194

C -5.0710522388059704 1.0783507462686561 0.47044029850746183
C -3.8153522388059704 0.1782507462686569 0.19534029850746193
C -4.11845223880597 -1.3219492537313435 0.5608402985074619
C -2.96945223880597 -2.3874492537313436 0.7034402985074619
C -2.52015223880597 0.7359507462686565 0.7384402985074618
C -2.20305223880597 0.7852507462686571 2.097440298507462
C -1.5755522388059702 1.205650746268656 -0.18965970149253808
C -0.9533522388059701 1.2695507462686564 2.508640298507462
H -2.91125223880597 0.4298507462686567 2.840840298507462
C -0.32655223880597006 1.6562507462686575 0.21554029850746192
H -1.7850522388059702 1.178550746268657 -1.2573597014925382
C 0.004447761194029898 1.6956507462686563 1.569740298507462
H -0.7158522388059702 1.2676507462686573 3.5705402985074617
H 0.3943477611940298 1.9193507462686572 -0.5551597014925382
C -1.76045223880597 -2.1592492537313435 -0.1734597014925381
C -0.5287522388059701 -1.936549253731343 0.464840298507462
C -1.8068522388059702 -2.121249253731343 -1.5681597014925381
C 0.6114477611940299 -1.614449253731343 -0.2582597014925381
H -0.4544522388059702 -1.954049253731343 1.5506402985074619
C -0.6479522388059701 -1.8270492537313432 -2.2998597014925384
H -2.74345223880597 -2.290549253731343 -2.092259701492538
C 0.5698477611940298 -1.5506492537313434 -1.6506597014925382
H 1.5072477611940298 -1.351949253731343 0.2991402985074618
H -0.7173522388059701 -1.7640492537313435 -3.3840597014925375
C 1.7791477611940298 -1.082849253731343 -2.4255597014925376
H 1.4739477611940297 -0.9102492537313429 -3.464259701492538
H 2.1252477611940295 -0.1337492537313434 -2.0010597014925384
C 1.3965477611940298 2.0964507462686566 1.997440298507462
H 1.51704776119403 1.8448507462686567 3.057640298507462
H 2.1256477611940294 1.5207507462686571 1.4165402985074618
C 3.94864776119403 -1.4275492537313434 -3.522959701492538
H 4.81734776119403 -2.087049253731343 -3.615159701492538
H 3.4305477611940303 -1.3641492537313429 -4.484459701492538
H 4.26984776119403 -0.441449253731343 -3.176459701492538
C 2.60904776119403 -3.4296492537313434 -2.8992597014925376
H 1.9825477611940296 -3.869549253731343 -2.119359701492538
H 2.06294776119403 -3.373349253731343 -3.845759701492538
H 3.5215477611940305 -4.019849253731343 -3.0234597014925377
C 3.7281477611940304 -2.060049253731343 -1.156659701492538
H 3.9048477611940298 -1.032549253731343 -0.8295597014925382
H 3.12924776119403 -2.623249253731343 -0.4404597014925382
H 4.68244776119403 -2.5769492537313434 -1.3005597014925383
C 3.1110477611940297 3.755250746268656 2.588740298507462
H 3.40124776119403 4.809350746268656 2.534540298507462
H 2.9823477611940303 3.461750746268656 3.634840298507462
H 3.86514776119403 3.1392507462686563 2.091540298507462
C 1.99744776119403 3.9574507462686572 0.40494029850746194
H 2.67914776119403 3.230350746268657 -0.04295970149253803
H 1.03214776119403 3.981150746268657 -0.10175970149253821
H 2.4399477611940297 4.958250746268657 0.368240298507462
C 0.7418477611940297 4.4992507462686575 2.475440298507462
H -0.18475223880597014 4.424250746268656 1.901240298507462
H 0.57844776119403 4.189650746268656 3.511940298507462
H 1.1210477611940297 5.524350746268658 2.4432402985074617
N 3.00114776119403 -2.025349253731343 -2.490159701492538
N 1.7831477611940298 3.586450746268657 1.862540298507462
C -3.55075223880597 -3.8435492537313434 0.6444402985074619
H -2.62515223880597 -2.2736492537313433 1.7424402985074618
H -4.67195223880597 -1.3478492537313436 1.5102402985074619
H -4.83415223880597 -1.6757492537313432 -0.1945597014925382
H -3.7169522388059697 0.17335074626865676 -0.900559701492538
H -3.9132522388059705 -4.043149253731343 -0.34225970149253815
H -4.35435223880597 -3.9354492537313432 1.3449402985074619
H -2.78115223880597 -4.545049253731343 0.8904402985074619
H -5.24235223880597 1.138950746268657 1.5249402985074618
H -5.92805223880597 0.6501507462686567 -0.006059701492538094
H -4.89895223880597 2.059650746268657 0.08004029850746197
C 2.9136485555431255 0.575180230126179 4.216029764521914
O 2.9101362653340046 -0.03301150507199724 3.156848016353018
O 2.0979021848021997 0.4165378894690783 5.131465142073953
O 3.7335043358599 1.443431599405102 4.536380265733397
O 5.007527980501966 -5.375300477518731 0.44530115373895157
H 5.182583741324688 -5.144527535587235 1.369999313559258
H 5.061381607167363 -6.342701470706758 0.4312637190088524
O 0.2839421529684998 7.031677190005919 -2.6177988653248097
H -0.6092076923752383 6.865574657925462 -2.954934831218275
H 0.6778345985424368 6.148681832228464 -2.553534693632902
O 2.271389660064448 -2.9897016690853464 6.970927563244248
H 2.0288959333838963 -2.057721096486204 6.8633340610317335
H 1.445714047619694 -3.416209557598629 7.245359245726281
O 0.30788287798957814 0.08643875233530884 8.552084421873225
H 0.516325632508484 0.9451277483682184 8.154375755786393
H -0.6370520660755297 -0.031389874106279136 8.372706857569437
O 4.7604048729650845 8.454901863804606 -0.7614359694210142
H 4.62292674734983 9.027974527381474 0.007755062857855322
H 3.9813405562830946 8.61513938648284 -1.314920089426969
O 2.3617943669096246 -8.2386112209718 1.0906041145878604
H 2.5508976738553657 -8.277095671192608 0.1410114422838941
H 3.161121487338312 -7.84615064338455 1.472720319278352
O -3.6545935070318007 -3.506851123900712 8.011209208132591
H -3.544574902147273 -4.415940208589943 8.328100829319013
H -3.7878117557567217 -3.606258518831263 7.056571574085103
O -3.342814182890731 -3.7647715072017482 -8.524498831047932
H -3.8748318555857075 -2.9551515878842065 -8.545478323045554
H -3.9701993805701226 -4.45004208494123 -8.249264397669062
O -0.750056912817511 -4.298902444270908 6.649618827583582
H -0.08155511801469006 -4.289524942191146 5.948202567649332
H -0.7148258298826744 -3.403561750493655 7.018516858429104
O -2.6469917437792767 -5.767080888058968 3.108214528566806
H -3.082887152584619 -6.2698312965303975 2.403796629685584
H -1.9440767864865287 -6.358221422912902 3.4171245076331
O 5.689625890543178 -2.6324502275920563 5.733276071167547
H 6.626094861752985 -2.625178127678441 5.982154232973869
H 5.223801304059368 -2.487618232500715 6.570529373415466
O -4.22517458560127 2.2993748565852536 -8.843519273460677
H -4.170672574185301 2.0459257265454003 -9.77720038933143
H -3.406892576387042 2.794285014891803 -8.687184910950984
O 2.171385192639889 -7.65285883086003 -2.627295734544614
H 1.9536979440360547 -8.06861809040598 -3.475071563875163
H 2.7384227289979037 -8.303273918157398 -2.1863982511349334
O 6.796334664208339 9.843518332197444 -2.8109192077356897
H 6.4987073651423355 9.454078568735074 -1.9750232702021644
H 7.28646693152754 9.127061967415413 -3.241526432705097
O -4.048915898278855 -0.8179968260549274 -4.2564131289784255
H -3.949195185795273 0.020093777521908978 -3.780359270052797
H -4.743178092578539 -1.284108303318852 -3.7668193783759207
O -6.746498221387174 -5.453139705439952 -6.336086114609851
H -6.775877002564813 -5.385264305085038 -5.369909539576499
H -6.686032467322349 -4.532938643798625 -6.633635846654001
O 4.211793344454291 1.4774508252698426 8.021845633383323
H 4.1687996004283505 1.5433544277054736 8.98764872411178
H 4.908488990075018 0.8230475261046222 7.862680801480065
O 5.97335494607219 1.2329076806186294 4.771907461656985
H 6.019706064249108 1.2206440027522052 5.739723835226341
H 6.887105980705165 1.0730735423758269 4.4917752798939015
O -1.0939317132397939 -6.6967889638920575 1.004657054176321
H -1.3129275825533182 -7.639460060429584 1.0534358392816545
H -0.24027886868169102 -6.631027687171997 1.4584347748303943
O -1.4090465179441638 6.251541890602011 -5.864619059833476
H -0.4668156376937229 6.153629077007393 -5.660703866342493
H -1.5536638421147615 5.640032033440267 -6.602252755134715
C -18.950892328152115 -4.665663189934552 -0.30865347053793446
O -18.52633464789799 -4.580302035716598 -1.4245757378970092
O -19.375450008406236 -4.751024344152506 0.8072687968211398
O -6.495637264142958 -7.104899148903569 -8.497544513950164
H -6.36760007767144 -7.179348993045574 -9.455161899176483
H -7.444044692765359 -6.931212992024925 -8.401012588958622
O -9.918446106091451 6.222324930557103 10.411048175653173
H -9.431729567530963 6.797483306754698 9.801731172541128
H -9.377170802827145 5.419983055792841 10.45827641271427
O -15.66768442138855 -3.1848223271727223 5.08573263480937
H -15.171186935240659 -2.494136990780188 4.6216083311566125
H -15.115769511526917 -3.9753192720544677 4.988436916994811
O -14.210741265188084 6.782355224601396 -6.095620432013501
H -14.466082993429122 6.624787064410853 -7.0169999594684205
H -14.707409834448274 7.576578615431067 -5.847645671063811
O 9.301990353142566 -16.173267658328054 11.19506558885507
H 10.260100853527781 -16.111457643944085 11.326104316235362
H 8.932818725170462 -15.629240289069315 11.906900172798444
O 3.7918862464620093 9.23225066357306 -11.12073669002305
H 2.9211218622542714 9.629346119848387 -11.272565352339518
H 4.35137107183569 9.98318496181995 -10.871665707784985
O 15.38752276699577 -5.257765805676517 2.0141300796679613
H 15.633579602959562 -5.157457239082345 2.9459892867605944
H 15.027093235487225 -4.391314503937316 1.7726458382960373
O 1.1594544870374452 -13.49609963073097 13.043204803006933
H 0.5974369057862905 -13.734457535221434 12.29068297300363
H 1.4380215984719342 -14.349925977798843 13.40699440948268
O 2.126109654851029 -16.158119315151822 9.141374226532424
H 2.7633267843354545 -15.434881714249993 9.042131798945231
H 1.369458594110787 -15.744417017646912 9.58329223433458
O 1.1148073869479482 8.122588796621113 17.920022708718573
H 1.2851989025855692 8.28326342632879 16.979747349226994
H 1.9058879706960754 8.46451172005088 18.363014998436988
O 8.23119736722765 -10.570579938265046 14.891431131822227
H 8.854461865761007 -11.30916268221858 14.962171870453052
H 7.865382353652718 -10.486634696426297 15.784792490129048
O -5.5572643025741 -9.389727116940428 -12.117825284432861
H -6.4045901316055165 -9.13966526854254 -12.515914933044897
H -5.481738522414254 -10.337616845360117 -12.304273302892948
O 2.517321030941409 -5.320931565455053 18.05231860231723
H 2.113838114393695 -5.0697744532142694 18.896764573309465
H 2.673157708994362 -6.273160251741179 18.141410706833955
O 1.5276153783359168 -8.320554138039883 -9.68412661223493
H 0.9583494613854663 -7.748020593197084 -9.148301069051048
H 1.645911790445236 -7.826707181931871 -10.509404194097486
O 1.963140868223384 12.501614832419422 0.19988996136118597
H 2.0353063849225457 12.91625255308691 -0.6729416694240502
H 1.884513585407542 13.250954290846039 0.8092093117365886
O -2.083745688173854 7.810590674109309 12.432020567008056
H -2.1126781817710074 7.112401488876849 11.760706833096195
H -2.9789941164821503 8.181278520608375 12.422925713000991
O 7.142051029429975 7.6653382561043735 15.176880926675901
H 7.205033257587332 7.6694045148021965 16.143826665265475
H 6.248490692423939 7.9953682097587855 14.999139265491687
O 15.875700631645087 -6.297666760384301 -12.818390212744303
H 15.064800226082777 -6.6568030231391235 -12.427968602259709
H 15.623535761892729 -6.088034807631869 -13.730217645512138
O -17.727331652211817 8.146614770118706 -1.1215577395230119
H -17.050871492518375 8.154135180314995 -1.815324597104147
H -18.535287842091044 8.423215460723782 -1.5794450591690499
O -8.123079857582894 9.362312443901923 1.8896412746166358
H -7.296337189785653 9.399328261007357 2.393718399100101
H -8.440762909351488 8.457261649569078 2.027200289575601