194

C -5.0710522388059704 1.0783507462686561 0.47044029850746183
C -3.8153522388059704 0.1782507462686569 0.19534029850746193
C -4.11845223880597 -1.3219492537313435 0.5608402985074619
C -2.96945223880597 -2.3874492537313436 0.7034402985074619
C -2.52015223880597 0.7359507462686565 0.7384402985074618
C -2.20305223880597 0.7852507462686571 2.097440298507462
C -1.5755522388059702 1.205650746268656 -0.18965970149253808
C -0.9533522388059701 1.2695507462686564 2.508640298507462
H -2.91125223880597 0.4298507462686567 2.840840298507462
C -0.32655223880597006 1.6562507462686575 0.21554029850746192
H -1.7850522388059702 1.178550746268657 -1.2573597014925382
C 0.004447761194029898 1.6956507462686563 1.569740298507462
H -0.7158522388059702 1.2676507462686573 3.5705402985074617
H 0.3943477611940298 1.9193507462686572 -0.5551597014925382
C -1.76045223880597 -2.1592492537313435 -0.1734597014925381
C -0.5287522388059701 -1.936549253731343 0.464840298507462
C -1.8068522388059702 -2.121249253731343 -1.5681597014925381
C 0.6114477611940299 -1.614449253731343 -0.2582597014925381
H -0.4544522388059702 -1.954049253731343 1.5506402985074619
C -0.6479522388059701 -1.8270492537313432 -2.2998597014925384
H -2.74345223880597 -2.290549253731343 -2.092259701492538
C 0.5698477611940298 -1.5506492537313434 -1.6506597014925382
H 1.5072477611940298 -1.351949253731343 0.2991402985074618
H -0.7173522388059701 -1.7640492537313435 -3.3840597014925375
C 1.7791477611940298 -1.082849253731343 -2.4255597014925376
H 1.4739477611940297 -0.9102492537313429 -3.464259701492538
H 2.1252477611940295 -0.1337492537313434 -2.0010597014925384
C 1.3965477611940298 2.0964507462686566 1.997440298507462
H 1.51704776119403 1.8448507462686567 3.057640298507462
H 2.1256477611940294 1.5207507462686571 1.4165402985074618
C 3.94864776119403 -1.4275492537313434 -3.522959701492538
H 4.81734776119403 -2.087049253731343 -3.615159701492538
H 3.4305477611940303 -1.3641492537313429 -4.484459701492538
H 4.26984776119403 -0.441449253731343 -3.176459701492538
C 2.60904776119403 -3.4296492537313434 -2.8992597014925376
H 1.9825477611940296 -3.869549253731343 -2.119359701492538
H 2.06294776119403 -3.373349253731343 -3.845759701492538
H 3.5215477611940305 -4.019849253731343 -3.0234597014925377
C 3.7281477611940304 -2.060049253731343 -1.156659701492538
H 3.9048477611940298 -1.032549253731343 -0.8295597014925382
H 3.12924776119403 -2.623249253731343 -0.4404597014925382
H 4.68244776119403 -2.5769492537313434 -1.3005597014925383
C 3.1110477611940297 3.755250746268656 2.588740298507462
H 3.40124776119403 4.809350746268656 2.534540298507462
H 2.9823477611940303 3.461750746268656 3.634840298507462
H 3.86514776119403 3.1392507462686563 2.091540298507462
C 1.99744776119403 3.9574507462686572 0.40494029850746194
H 2.67914776119403 3.230350746268657 -0.04295970149253803
H 1.03214776119403 3.981150746268657 -0.10175970149253821
H 2.4399477611940297 4.958250746268657 0.368240298507462
C 0.7418477611940297 4.4992507462686575 2.475440298507462
H -0.18475223880597014 4.424250746268656 1.901240298507462
H 0.57844776119403 4.189650746268656 3.511940298507462
H 1.1210477611940297 5.524350746268658 2.4432402985074617
N 3.00114776119403 -2.025349253731343 -2.490159701492538
N 1.7831477611940298 3.586450746268657 1.862540298507462
C -3.55075223880597 -3.8435492537313434 0.6444402985074619
H -2.62515223880597 -2.2736492537313433 1.7424402985074618
H -4.67195223880597 -1.3478492537313436 1.5102402985074619
H -4.83415223880597 -1.6757492537313432 -0.1945597014925382
H -3.7169522388059697 0.17335074626865676 -0.900559701492538
H -3.9132522388059705 -4.043149253731343 -0.34225970149253815
H -4.35435223880597 -3.9354492537313432 1.3449402985074619
H -2.78115223880597 -4.545049253731343 0.8904402985074619
H -5.24235223880597 1.138950746268657 1.5249402985074618
H -5.92805223880597 0.6501507462686567 -0.006059701492538094
H -4.89895223880597 2.059650746268657 0.08004029850746197
C 0.8081511469245413 3.565993978739992 -2.3818849352972373
O -0.2845795423715498 4.082910344322478 -2.2072063439831253
O 1.8928306564787265 4.1568324891741595 -2.3270061576028813
O 0.9983983176709319 2.372035774823959 -2.640570469729676
O 8.40482671443231 0.6192949097455729 0.5105420633398481
H 8.94272601031502 0.6140063420054236 1.316522047855683
H 9.004439883830834 0.9627342470374156 -0.16877775308272325
O 5.64312306739198 2.98444589408832 1.0527279966064416
H 6.317557996475197 3.3573587482247964 1.6401298067435086
H 5.650976850710602 2.037620109391102 1.2586920609965198
O -6.519548876362646 -2.8735976947416653 8.763878720110466
H -7.28525908292647 -3.2629379096793856 8.315471055706478
H -6.011101965912536 -2.465437454786919 8.047046171969813
O -7.704555037563302 -4.29812697139876 5.43587536902171
H -7.708974721067895 -3.8188230812951427 6.278024764455359
H -8.069670127723525 -3.6620229836879883 4.802610312307111
O -5.423035503975994 -2.0121657786889693 -3.413508403143794
H -6.114898939852807 -2.3512106515254394 -2.8258512605852846
H -4.602631816821763 -2.162313479852198 -2.920197748242505
O 7.662023947124916 -2.043251845091814 1.6385651491038409
H 6.865370165599561 -1.6808923177067696 2.0545046665756024
H 7.8608211421285255 -1.4157929358219965 0.9274133110716061
O -10.856473224965724 -1.7306826412100804 -6.154072217726585
H -10.637074465488482 -1.5366608713586798 -5.230390944741376
H -10.00127253342258 -1.9399667359423498 -6.55878679514655
O 2.270108300790485 -10.04166967703913 2.4996539526954735
H 2.048148370742226 -10.64668834315303 3.223293061648776
H 2.760521852625588 -9.32751335086401 2.933747530464753
O 0.5954475550370102 10.874687089828857 -2.346975583771827
H 0.4526319263461138 10.878628272539263 -3.3053886054803536
H 0.46795647531539153 11.799563340949781 -2.0875302349911555
O 7.536848189253984 -3.399464444515063 -5.2466439126290965
H 7.003467912743071 -4.015308118902366 -4.722039865517097
H 8.152204366284693 -3.9734342170277115 -5.727120155467311
O -2.010282371729467 0.643572521038415 6.1480249413441
H -2.0065269515189192 0.5454229245874502 5.184012539745679
H -2.487046153420117 -0.13974479227021402 6.461189797991491
O 2.1128642116815644 3.365795871320668 -7.088954868354979
H 1.7689702873707782 4.0448657934662835 -7.688595065939562
H 2.524913026749146 2.7182088341412864 -7.680401186780101
O 5.481281744710183 2.1577703303290425 5.098542515919265
H 5.653433857720249 3.104090675163701 4.9810316149858505
H 4.556231258136439 2.053002905510937 4.8297166832940155
O 4.020774596333543 -3.8965084826227625 3.0554974674574353
H 3.5320687681642826 -3.351639298112636 2.420476568443341
H 3.732663412870958 -4.800516369326763 2.858714259228802
O 6.655920330421296 0.7244178378819089 -1.9995003128833861
H 7.5659463101292 0.6231652331825711 -2.316624867590629
H 6.743358341432949 1.28095240119167 -1.2110931729030723
O -8.849245124284272 4.614774753635698 5.87392596027978
H -8.616658018053041 4.5487639099072865 6.812282589406065
H -8.176140686998345 4.079251986542609 5.427711071766457
O 3.4605186673535755 -6.227149113367314 5.055969009276451
H 4.085404880849883 -5.535415478710547 4.791414372638217
H 2.7395680023781988 -6.149580436605871 4.413181965725446
O 4.218184019192806 8.645360965684311 -5.026263904388586
H 3.3899275318305864 8.142412937435589 -5.027616281230728
H 4.569126352744531 8.520780551627915 -5.920848245440232
O -0.07226453692968504 -8.407739341736816 0.03268763412092829
H 0.19077598456544664 -8.741456130903451 0.9035551014085069
H -1.0144399336110292 -8.626187457758808 -0.026876506054130028
O 2.072110879429514 1.1561282035452092 -4.842697137301514
H 2.6843396551565126 1.5943712985850582 -5.452685885330293
H 1.7138577990055937 0.41917199377981396 -5.359912971895732
C -12.104759319476688 8.248629877338061 1.560418842563807
O -11.154203959214438 8.561449930616458 2.217234173264609
O -13.055314679738938 7.935809824059662 0.9036035118630052
O 6.105511902825457 -16.32824586074903 12.627275887222602
H 6.02096175687408 -16.24222133255519 11.665809085783973
H 6.16729923999952 -17.284354741714438 12.772189920373329
O 13.28574774753866 7.411676133963321 6.8141569660025505
H 12.856463108570203 8.195303107711203 6.4391758709317966
H 13.79112033346425 7.758285070744526 7.56477187302098
O 15.054393354247939 -3.289869922951036 1.2593046132484056
H 14.409646423011218 -2.5700586700593417 1.1876072508748747
H 14.659794755120654 -3.8939840421620975 1.906065790837651
O -0.8515591779671245 14.138540372159923 -2.443950612130905
H -0.8756979592669643 14.035196369261122 -1.4807763323651861
H -1.6992663580685257 14.557477291453441 -2.6557201537495834
O -11.340248183254403 -10.093264244331262 5.6971624094465145
H -11.628462093401932 -9.699670175045172 4.859914651897837
H -11.6848788240016 -10.99819729103246 5.661275827744394
O -9.748484352117865 -9.068905103903365 10.768565265138763
H -9.896018584306754 -9.036927369715945 9.81139316371255
H -10.023870829085515 -8.19263725066045 11.077238040058104
O 2.794572425283711 10.56309842605058 -5.005138168394832
H 3.556367834019167 10.823689823192499 -5.544329447872908
H 3.0408987151778453 10.830906857268175 -4.107049115251572
O -6.0056313007686075 -15.862242707184475 -8.163431496267103
H -6.1614338556645105 -16.800009110407586 -7.975582903581676
H -6.8172696238500885 -15.425597996846756 -7.864188160936855
O -7.227142216937356 -5.374036244878782 13.166027797512383
H -7.622129865053911 -6.072475422481184 12.622764666124441
H -6.276460700598468 -5.557775643993603 13.12852537086397
O 10.700459390744589 -4.606615731250658 -10.52841418012534
H 11.57519299936186 -4.784227238349491 -10.151237002393852
H 10.519864700498827 -3.688023827780045 -10.278341356665312
O 16.610321229160487 1.9731918423280619 -3.5640268565366995
H 15.894797439579667 1.8378986218711653 -2.9247391216767946
H 17.378273837856224 1.5534016454056627 -3.1481098868597357
O 16.13663144272759 7.889923218869565 6.587297025226862
H 17.009975523097552 7.5479903824116725 6.830852787906808
H 16.114226758744703 8.775581545950923 6.9798136517627
O 15.064092207712303 -11.927859497814143 8.563700830127363
H 15.117427681784253 -11.073996370739152 8.10868385865571
H 14.402231417166508 -11.782973062069232 9.25645631294596
O 2.897130998706483 -12.78188211856801 -11.120344702391638
H 2.9465722765815494 -12.856559531688912 -12.08520023609171
H 2.7683396536740665 -11.834086592710829 -10.96523707875615
O 14.03618682787703 -4.608547115634595 6.446361063878221
H 14.12683499050826 -4.637537053365651 5.4820427289794535
H 13.16974303084048 -4.198378343745622 6.58777771581136
O -4.112444324751223 -2.5149650970037998 -17.800007969660726
H -3.919089378810546 -2.0624061362270574 -18.634736433774027
H -4.283813193263838 -3.431210997094512 -18.064749552665106
O -5.655490509313779 5.393996400114312 -5.799433427895644
H -5.217504616279291 5.392571990377308 -6.663802380056516
H -5.960475060872376 4.4807672948990875 -5.69007635680099
O -5.089421385910564 -13.50306352416026 0.1254999433200803
H -5.4179620058358395 -14.049832335847075 -0.6039329079593934
H -4.8229568691796985 -12.676064672678862 -0.30348899042044764
O 0.018744284784722343 8.14739656433948 -11.976244376201091
H 0.000710779257556915 7.230137563006288 -12.288138707748873
H -0.7563577516767226 8.551945444918054 -12.393999065697143
O 15.813149403860809 3.8815831732010504 6.153218357142613
H 15.818996130721912 4.313978432843792 7.020378960562474
H 16.471766756869602 4.374705426595918 5.641343792603158