194

C -5.0710522388059704 1.0783507462686561 0.47044029850746183
C -3.8153522388059704 0.1782507462686569 0.19534029850746193
C -4.11845223880597 -1.3219492537313435 0.5608402985074619
C -2.96945223880597 -2.3874492537313436 0.7034402985074619
C -2.52015223880597 0.7359507462686565 0.7384402985074618
C -2.20305223880597 0.7852507462686571 2.097440298507462
C -1.5755522388059702 1.205650746268656 -0.18965970149253808
C -0.9533522388059701 1.2695507462686564 2.508640298507462
H -2.91125223880597 0.4298507462686567 2.840840298507462
C -0.32655223880597006 1.6562507462686575 0.21554029850746192
H -1.7850522388059702 1.178550746268657 -1.2573597014925382
C 0.004447761194029898 1.6956507462686563 1.569740298507462
H -0.7158522388059702 1.2676507462686573 3.5705402985074617
H 0.3943477611940298 1.9193507462686572 -0.5551597014925382
C -1.76045223880597 -2.1592492537313435 -0.1734597014925381
C -0.5287522388059701 -1.936549253731343 0.464840298507462
C -1.8068522388059702 -2.121249253731343 -1.5681597014925381
C 0.6114477611940299 -1.614449253731343 -0.2582597014925381
H -0.4544522388059702 -1.954049253731343 1.5506402985074619
C -0.6479522388059701 -1.8270492537313432 -2.2998597014925384
H -2.74345223880597 -2.290549253731343 -2.092259701492538
C 0.5698477611940298 -1.5506492537313434 -1.6506597014925382
H 1.5072477611940298 -1.351949253731343 0.2991402985074618
H -0.7173522388059701 -1.7640492537313435 -3.3840597014925375
C 1.7791477611940298 -1.082849253731343 -2.4255597014925376
H 1.4739477611940297 -0.9102492537313429 -3.464259701492538
H 2.1252477611940295 -0.1337492537313434 -2.0010597014925384
C 1.3965477611940298 2.0964507462686566 1.997440298507462
H 1.51704776119403 1.8448507462686567 3.057640298507462
H 2.1256477611940294 1.5207507462686571 1.4165402985074618
C 3.94864776119403 -1.4275492537313434 -3.522959701492538
H 4.81734776119403 -2.087049253731343 -3.615159701492538
H 3.4305477611940303 -1.3641492537313429 -4.484459701492538
H 4.26984776119403 -0.441449253731343 -3.176459701492538
C 2.60904776119403 -3.4296492537313434 -2.8992597014925376
H 1.9825477611940296 -3.869549253731343 -2.119359701492538
H 2.06294776119403 -3.373349253731343 -3.845759701492538
H 3.5215477611940305 -4.019849253731343 -3.0234597014925377
C 3.7281477611940304 -2.060049253731343 -1.156659701492538
H 3.9048477611940298 -1.032549253731343 -0.8295597014925382
H 3.12924776119403 -2.623249253731343 -0.4404597014925382
H 4.68244776119403 -2.5769492537313434 -1.3005597014925383
C 3.1110477611940297 3.755250746268656 2.588740298507462
H 3.40124776119403 4.809350746268656 2.534540298507462
H 2.9823477611940303 3.461750746268656 3.634840298507462
H 3.86514776119403 3.1392507462686563 2.091540298507462
C 1.99744776119403 3.9574507462686572 0.40494029850746194
H 2.67914776119403 3.230350746268657 -0.04295970149253803
H 1.03214776119403 3.981150746268657 -0.10175970149253821
H 2.4399477611940297 4.958250746268657 0.368240298507462
C 0.7418477611940297 4.4992507462686575 2.475440298507462
H -0.18475223880597014 4.424250746268656 1.901240298507462
H 0.57844776119403 4.189650746268656 3.511940298507462
H 1.1210477611940297 5.524350746268658 2.4432402985074617
N 3.00114776119403 -2.025349253731343 -2.490159701492538
N 1.7831477611940298 3.586450746268657 1.862540298507462
C -3.55075223880597 -3.8435492537313434 0.6444402985074619
H -2.62515223880597 -2.2736492537313433 1.7424402985074618
H -4.67195223880597 -1.3478492537313436 1.5102402985074619
H -4.83415223880597 -1.6757492537313432 -0.1945597014925382
H -3.7169522388059697 0.17335074626865676 -0.900559701492538
H -3.9132522388059705 -4.043149253731343 -0.34225970149253815
H -4.35435223880597 -3.9354492537313432 1.3449402985074619
H -2.78115223880597 -4.545049253731343 0.8904402985074619
H -5.24235223880597 1.138950746268657 1.5249402985074618
H -5.92805223880597 0.6501507462686567 -0.006059701492538094
H -4.89895223880597 2.059650746268657 0.08004029850746197
C 1.124439766242894 -1.290046459510309 3.709221956432075
O 1.061636803250731 -0.23934068608761838 3.0896667416726236
O 0.2238346866840184 -2.1347477070173273 3.772639282399336
O 2.098332750719183 -1.671242752704561 4.368668865017466
O 0.5781164947164545 -7.067847683751947 2.180326104308734
H 0.5475173287824022 -7.08219146502439 1.2119122961239528
H -0.2422811039649777 -7.509211633159448 2.446986166074931
O -2.347717765455379 -7.256323751197227 -9.099595140896138
H -2.402637768526747 -7.300121848744766 -8.133141377483808
H -2.2746395050053057 -6.3084629699150465 -9.287162332741413
O -3.418071889467919 -5.337129346907732 -5.788449393068628
H -2.553648213494968 -5.380116974897229 -6.2242143861064445
H -3.8792185942518955 -4.622781498183742 -6.253221177916083
O 6.78252295190114 4.666469820632436 2.2744801538018966
H 5.9838167447942805 4.119214657991263 2.2351413867704077
H 7.2847106712943575 4.40449208715498 1.4882631952257954
O -1.5899123765973981 0.29656634291949646 6.077421480828379
H -1.2987026487742177 -0.4677436658634184 6.597031393931864
H -1.807369370850017 -0.07865246867568776 5.210885132268371
O 8.975858489781814 3.7538298541453714 5.25038639348094
H 9.065829993930805 3.6698391219151847 4.289231857393946
H 8.172697836434333 3.2518227556144566 5.455041670077998
O 2.8513061777969524 5.810900274627681 -5.096386552787505
H 2.7727284383620057 5.829870314031114 -4.130760831625147
H 2.057360352826598 6.272856063547778 -5.404945818400051
O 5.7609633111357095 0.6635766226097051 -1.0468616322061373
H 5.708235550244856 0.6937268958834304 -2.0139594044882148
H 5.608517508745589 1.581205737850004 -0.7754228205064512
O 2.7248434499351237 -7.834283968709942 -1.5113595494138696
H 3.165218278591925 -7.237691741490634 -2.135150445152978
H 2.0556765423004855 -7.276638436055923 -1.0868491797670146
O -7.50213837998333 -2.167926668844852 5.940084609616557
H -7.519637559731233 -2.1921561606960047 6.908626847896739
H -8.285454472772365 -2.675126272207224 5.6790742545982695
O 9.544689629017965 -1.790593021749983 -2.6263678340035055
H 9.423882064289606 -1.860518780014551 -1.667470927378226
H 8.771591997687668 -1.2876771768044621 -2.923617980570699
O 7.168442847890004 1.1675173269066335 -7.278889240666132
H 6.584940267677105 1.2883284154370154 -8.043020627714847
H 6.994947017757886 1.944674773433885 -6.726723102140771
O -7.031675615312257 4.744629496233639 1.4093830096193978
H -7.840551130117826 4.720278354203566 1.942388432040087
H -6.738516253816629 3.821320612214077 1.386574288523603
O 0.18971795018996968 1.5304252108345704 -7.724281450296556
H 0.10962297537141419 1.5451769517651208 -8.68985616933612
H -0.492937783274906 0.9031636568731379 -7.442348768988728
O 0.6438875900810941 7.516433700088543 1.6354626318437386
H 0.38204061396521616 8.068579505080681 0.8834396747283639
H -0.12710038217957642 7.538911373134236 2.222006956804631
O -3.2925440898247196 -2.724120185647238 -9.924071112570385
H -3.5040545563365244 -3.4939892589832926 -9.374951554207506
H -3.744245341925192 -2.9033723337378916 -10.762400755703533
O 4.627817740448705 6.00648971104469 3.804159451041312
H 5.519979807811106 5.683652305263039 4.001111759704656
H 4.345138925282866 6.430606325873413 4.6282830636035674
O -4.386317731851358 0.6319242596278317 -2.828264479968464
H -3.523283485774277 1.016400276409259 -3.0434793482235456
H -4.979095117265185 0.994627486964676 -3.503559441093885
O 1.7721041105248805 3.61477469104589 -6.694714515029451
H 1.4065719013953863 3.5363177239870947 -5.800735731551428
H 1.058928482033313 4.028630681105004 -7.203699472290319
O -4.964766738304816 4.225726891255741 -4.2143218068136035
H -5.313756399570027 4.269452104641095 -5.117240230008302
H -4.570552247615613 5.099590130054365 -4.073183861855378
C -3.684605152533436 -7.069165989814944 15.698744442737059
O -3.387807574304471 -8.216702113136025 15.53174054897812
O -3.9814027307624027 -5.921629866493863 15.865748336495997
O 8.821501239059184 -13.334245162726276 8.1007069637717
H 8.67281386773899 -13.716786424440459 8.978500564566334
H 8.922346441140018 -14.105772590387016 7.523179806068724
O 8.33778335494771 -7.886238776405578 -1.185011183119535
H 8.456343283884573 -8.148735954038694 -2.110217177417635
H 7.856690173486517 -7.04687926472347 -1.2396637695205492
O -0.22629563099132266 9.992024058723857 6.628765368748717
H 0.1928471094029014 9.71770759023427 7.458245443970675
H 0.5169139816136035 10.264646295856886 6.06994649661552
O 5.717297850886705 -0.9865092440322314 1.5642046793806497
H 5.034159082209854 -0.9866737193373774 0.8769720022046075
H 6.126209471157274 -1.8616893884577042 1.4879620016266069
O -5.964805664990657 -2.471230581694317 10.51260406722831
H -5.814030642300075 -3.4062831989782367 10.307882665457155
H -5.250511323422416 -2.0114289953059052 10.046419512509589
O -5.232571409393427 -10.3833611812171 5.460347227295786
H -4.963357705200189 -9.685324034701827 4.84452624644228
H -4.839626722915848 -10.115098786752622 6.3044986979367
O 1.7159017513242465 -7.926073683876412 5.332370512965312
H 2.1165945033776343 -7.333291343746494 5.985839542516049
H 0.8751225372082176 -7.497623815683442 5.112182030396722
O 17.462687406639073 1.005460601194084 16.005545778492944
H 17.530841618014477 0.5127228090354592 16.83712970603751
H 17.558984393373706 0.3254372584429781 15.321983719891502
O 5.651976426661492 0.4965102707904461 3.913266091997004
H 5.807140766799985 0.719678947850718 4.843366691947651
H 5.693923380838461 1.3506006136014397 3.457489739327986
O 17.57487113916917 -11.025471306066052 5.91869792020936
H 17.816108752915852 -10.800297997506421 6.829779009754147
H 16.7194501967131 -11.472105693248157 6.00664494798202
O -15.34712800455776 2.7732233576219647 2.6572377331425647
H -14.41803114598861 2.5005601667223356 2.6946699201661652
H -15.323280562530094 3.622260510255159 2.1908375216747156
O 8.554532403633413 -18.270213905078943 -1.5767426447660093
H 8.11083366161813 -18.450383620028838 -2.4191425836601956
H 8.040378858404393 -17.544613905011577 -1.1918884955995122
O -12.380858465593844 10.933359829679421 -7.094318710982519
H -12.191270119820963 10.733783187467253 -8.023400397342991
H -12.134143573343827 11.865680830120171 -7.000131353130103
O 0.9028690477249643 0.37551652588053575 -19.64467747180973
H 0.3527436539091724 -0.021586391307777397 -18.952840293609864
H 1.0226078618163559 1.2913456288387364 -19.351621820311983
O 15.394553202167657 -2.079413351573595 7.659288694274299
H 15.756119224869895 -2.2795004437081854 6.7828170611403955
H 15.642497280106806 -2.847392503170475 8.195659555924555
O 8.772560017759984 2.889619163613588 17.70203010883367
H 8.124061141161867 3.217199145288558 17.060853128931235
H 8.569130602898246 1.9453514505243366 17.779081413080938
O 3.4946522929222223 3.334383817368259 11.710109936575769
H 2.675286514131704 3.1418934062777386 12.190270866978494
H 3.241387515227243 3.2641667052899854 10.777431828196196
O 13.427336565142438 4.299200593460488 -2.35142761747461
H 13.628318621313042 4.505019106734938 -1.4261102072899035
H 12.703143562493421 4.903457523494318 -2.5736437323724557
O -5.199130739276436 4.3120193322414115 6.745867894565652
H -5.180331493355619 4.6913196842893665 5.854383072379034
H -4.860633205462452 3.412203504585933 6.6245713974911915
O -10.876699222637267 -12.050525651412606 0.1636368792165647
H -10.864670988626093 -12.074169774701584 1.1322769743605088
H -9.946235045521735 -12.157925715758504 -0.08468465747168476