194

C -5.0710522388059704 1.0783507462686561 0.47044029850746183
C -3.8153522388059704 0.1782507462686569 0.19534029850746193
C -4.11845223880597 -1.3219492537313435 0.5608402985074619
C -2.96945223880597 -2.3874492537313436 0.7034402985074619
C -2.52015223880597 0.7359507462686565 0.7384402985074618
C -2.20305223880597 0.7852507462686571 2.097440298507462
C -1.5755522388059702 1.205650746268656 -0.18965970149253808
C -0.9533522388059701 1.2695507462686564 2.508640298507462
H -2.91125223880597 0.4298507462686567 2.840840298507462
C -0.32655223880597006 1.6562507462686575 0.21554029850746192
H -1.7850522388059702 1.178550746268657 -1.2573597014925382
C 0.004447761194029898 1.6956507462686563 1.569740298507462
H -0.7158522388059702 1.2676507462686573 3.5705402985074617
H 0.3943477611940298 1.9193507462686572 -0.5551597014925382
C -1.76045223880597 -2.1592492537313435 -0.1734597014925381
C -0.5287522388059701 -1.936549253731343 0.464840298507462
C -1.8068522388059702 -2.121249253731343 -1.5681597014925381
C 0.6114477611940299 -1.614449253731343 -0.2582597014925381
H -0.4544522388059702 -1.954049253731343 1.5506402985074619
C -0.6479522388059701 -1.8270492537313432 -2.2998597014925384
H -2.74345223880597 -2.290549253731343 -2.092259701492538
C 0.5698477611940298 -1.5506492537313434 -1.6506597014925382
H 1.5072477611940298 -1.351949253731343 0.2991402985074618
H -0.7173522388059701 -1.7640492537313435 -3.3840597014925375
C 1.7791477611940298 -1.082849253731343 -2.4255597014925376
H 1.4739477611940297 -0.9102492537313429 -3.464259701492538
H 2.1252477611940295 -0.1337492537313434 -2.0010597014925384
C 1.3965477611940298 2.0964507462686566 1.997440298507462
H 1.51704776119403 1.8448507462686567 3.057640298507462
H 2.1256477611940294 1.5207507462686571 1.4165402985074618
C 3.94864776119403 -1.4275492537313434 -3.522959701492538
H 4.81734776119403 -2.087049253731343 -3.615159701492538
H 3.4305477611940303 -1.3641492537313429 -4.484459701492538
H 4.26984776119403 -0.441449253731343 -3.176459701492538
C 2.60904776119403 -3.4296492537313434 -2.8992597014925376
H 1.9825477611940296 -3.869549253731343 -2.119359701492538
H 2.06294776119403 -3.373349253731343 -3.845759701492538
H 3.5215477611940305 -4.019849253731343 -3.0234597014925377
C 3.7281477611940304 -2.060049253731343 -1.156659701492538
H 3.9048477611940298 -1.032549253731343 -0.8295597014925382
H 3.12924776119403 -2.623249253731343 -0.4404597014925382
H 4.68244776119403 -2.5769492537313434 -1.3005597014925383
C 3.1110477611940297 3.755250746268656 2.588740298507462
H 3.40124776119403 4.809350746268656 2.534540298507462
H 2.9823477611940303 3.461750746268656 3.634840298507462
H 3.86514776119403 3.1392507462686563 2.091540298507462
C 1.99744776119403 3.9574507462686572 0.40494029850746194
H 2.67914776119403 3.230350746268657 -0.04295970149253803
H 1.03214776119403 3.981150746268657 -0.10175970149253821
H 2.4399477611940297 4.958250746268657 0.368240298507462
C 0.7418477611940297 4.4992507462686575 2.475440298507462
H -0.18475223880597014 4.424250746268656 1.901240298507462
H 0.57844776119403 4.189650746268656 3.511940298507462
H 1.1210477611940297 5.524350746268658 2.4432402985074617
N 3.00114776119403 -2.025349253731343 -2.490159701492538
N 1.7831477611940298 3.586450746268657 1.862540298507462
C -3.55075223880597 -3.8435492537313434 0.6444402985074619
H -2.62515223880597 -2.2736492537313433 1.7424402985074618
H -4.67195223880597 -1.3478492537313436 1.5102402985074619
H -4.83415223880597 -1.6757492537313432 -0.1945597014925382
H -3.7169522388059697 0.17335074626865676 -0.900559701492538
H -3.9132522388059705 -4.043149253731343 -0.34225970149253815
H -4.35435223880597 -3.9354492537313432 1.3449402985074619
H -2.78115223880597 -4.545049253731343 0.8904402985074619
H -5.24235223880597 1.138950746268657 1.5249402985074618
H -5.92805223880597 0.6501507462686567 -0.006059701492538094
H -4.89895223880597 2.059650746268657 0.08004029850746197
C -0.8499831819274088 3.417648965759078 -2.6136681723140973
O -1.9914120680351701 3.7519378223414277 -2.8914568634511926
O -0.3828198378549006 2.2830739846629715 -2.7657519858044286
O 0.014607370699868616 4.16220884640614 -2.13747268216484
O 4.176203775654322 -2.0918251134044032 7.645249148051729
H 5.001281669353819 -2.2991526639967694 7.1813212301660165
H 3.547330124852803 -1.9048563136608494 6.9321414818820095
O 4.9038397804197125 6.549901647299121 -8.538754122742917
H 5.84406673922837 6.395724109843538 -8.715304143342056
H 4.718908019511113 6.002448292431043 -7.760900015373849
O 3.9220265042356166 0.7242840288670598 9.660840831017035
H 3.5537196515382243 -0.10376125818568882 10.003854565065502
H 3.3530273666281865 0.9387395987385674 8.90638027256942
O 6.92203622918155 1.5094099180620766 -3.6708492602028326
H 6.854747024725789 1.7321687847638212 -4.61149691324273
H 6.000468414211298 1.420891836452563 -3.384773647926767
O -6.257077178596431 -5.409959280815821 5.136081247181254
H -6.821038097318599 -6.171927224182659 4.935282112881929
H -6.860697857085854 -4.653346947357395 5.089801687345817
O -4.383445945226343 -6.114736404787251 7.639139032763618
H -4.390409876319155 -6.045659421511108 6.672626109443291
H -4.182282621111573 -7.04788516445581 7.8056582618638215
O -7.412083064923905 0.755349421611923 3.526549310574937
H -7.789739005747926 1.5415454496400751 3.9487331008524444
H -7.7797784984494855 0.017092330062374206 4.03521273489522
O -3.1053546089071045 -11.02542855619742 -2.895226425532835
H -2.745935325534057 -11.684874924030709 -3.507529964303509
H -3.7534933071780037 -11.520548899131821 -2.3720304602232547
O 5.320302901559794 -2.4332103523749873 2.83624092184134
H 5.054760068935709 -1.824088012242588 3.541524081780387
H 6.160653518981115 -2.8008983145315374 3.14861625150866
O 2.9797520432124265 -5.382134387857039 5.901228008530305
H 2.339782190397096 -4.8080650413279615 6.348274236300101
H 2.463054011936154 -5.807558064890761 5.200514241151406
O -6.079183748170958 5.815889221977612 -6.170728400842954
H -6.11203549168404 5.908474098263158 -7.13473885749337
H -6.890738410371278 5.3327129123849195 -5.954206742782356
O -1.0900024688219723 1.546548518663383 -10.764705002028306
H -0.6174499527180513 1.1053230254357178 -11.486495512183335
H -0.545386671024926 2.323766709794445 -10.569033183758922
O 2.9283880371543347 5.836386211045207 -4.644647562806448
H 2.192322183032458 6.406119698318381 -4.914050919829666
H 2.56729600874009 4.939736838123219 -4.712429517295024
O 5.35497441574403 3.0158016337287625 6.81918330858153
H 6.159778738605506 2.9250511350403436 7.351181152365962
H 5.395618701624347 3.9249819867755154 6.486465602471592
O -3.2638486191366356 1.3303036616286863 -6.7947447223960005
H -3.5133451138845397 1.495014017655071 -5.873013007293296
H -2.3755123109506244 1.710325140564834 -6.868258145698346
O -4.271851646150802 8.139923221007436 -4.162653595087359
H -4.157888254765445 8.470806710693351 -5.066255176857346
H -4.952130825044383 8.717978068755821 -3.7857785812452835
O -0.04290901300423133 7.215625867538858 -3.1557651432922302
H 0.4748702734186119 7.188142370517326 -3.974371657340903
H -0.2902601761954151 6.291081398914571 -3.0041179477883166
O -2.0430131538250915 1.961295377871653 7.7255417832029565
H -2.1190098036807834 2.141937675937672 6.776563265922329
H -2.7638116813452887 2.474901268285377 8.120029319580269
O -0.4855139404306388 -4.221219480698983 6.434265080493603
H 0.25168695408304664 -3.71332224571045 6.805132437805116
H -0.09748982020992436 -5.0869528675027285 6.237021755130594
O 3.604946249761249 -9.808921987218865 3.6454304914917444
H 4.265769147731669 -9.308530803289855 4.1473160536113385
H 3.6310932568914995 -10.69322186864703 4.040768319209086
C -2.2047623841548214 -14.257599879671409 -9.047644361965704
O -2.247839211794047 -14.152708018861368 -10.23926525040143
O -2.161685556515596 -14.362491740481447 -7.856023473529977
O 0.3801945152018491 3.4418035031811587 -5.004940118797104
H -0.14556044326715822 4.135550502897865 -4.579188805317836
H 0.6867372922802168 3.852032864656824 -5.827561137920947
O 17.604377969360957 4.5371158086129 14.419432302778935
H 16.651943111410233 4.455140093127569 14.577909999414947
H 17.7156518839584 5.455881544006278 14.13229194738244
O -1.2881098601600662 -17.188296283964384 -1.5449494035271527
H -1.3028761584105482 -17.448137544329555 -2.478347406925391
H -1.7174368607979078 -16.319632399784812 -1.5369915680567166
O 10.925483436410687 3.029648908337963 -16.32016127339331
H 10.191805114901758 3.6587061256006166 -16.390663009950696
H 10.627598613779949 2.3968414412923256 -15.649503919450524
O 7.208686621201567 -14.960283800571027 10.47168454867663
H 7.069523790573485 -14.978014120409103 11.430478947507796
H 7.771079856597681 -15.731033754704331 10.302509192066397
O -1.2559067599674858 12.216039280649214 -1.7671843859318008
H -1.2001419030453233 12.624965000686101 -0.8904647083125705
H -0.40874697615411026 11.75595035142268 -1.8651661301112779
O 3.479710436060161 -15.83749970764073 1.3764991009677052
H 3.7216764047156 -15.078008004826923 1.927491097524479
H 4.2545518124121084 -16.417436807620334 1.423993793937175
O 9.544745704650314 15.564958421439218 -2.221923398560838
H 9.088404529954031 15.403812221881545 -1.382428317250091
H 9.355222675405725 14.773000414047699 -2.747133337741742
O -4.329774598099431 3.2173572604383818 -19.55355830375472
H -4.756554972124516 2.8430589240568818 -18.768238862616876
H -4.647487793543113 4.132441574736943 -19.578875639034994
O 4.288376260344448 -3.8094165510009477 -12.358195906926921
H 4.216072641899261 -4.0478638657579245 -13.294615909780834
H 3.426863647186016 -4.0529577414824605 -11.98745927506034
O 4.280365523973108 5.9175409485444135 -11.844573085881722
H 3.71318733302365 6.6970421042691175 -11.746317272643253
H 5.179713432761617 6.273876527635735 -11.788357088768905
O -10.352980904531488 11.609368985960248 8.883221428900391
H -9.943907127207764 11.229880964942408 8.090999967748228
H -11.254561688763786 11.254362832272692 8.874020089484837
O 14.113498507343264 4.404208500931601 -0.08984531254171291
H 13.93877867878166 4.072077539266418 0.8035355484077287
H 14.018172159987799 5.364790387492584 -0.005244656452012997
O 1.919669907522507 -3.260419049455102 3.83194205132949
H 1.8575534316709235 -3.305309751189493 4.797909817471599
H 1.4527036290412734 -4.05406814375294 3.5302376360790535
O 13.158398258100357 -3.723298092802369 -13.024802931714557
H 13.371822071527717 -2.9941998695307817 -13.62632883604814
H 13.10236240993827 -3.3002266827758335 -12.154841719913183
O 5.1977786915500355 -5.227693424417373 -18.419919732469417
H 5.696622511907252 -5.048971247129658 -17.60863643846112
H 4.486531986309475 -5.819368484972122 -18.13180397222368
O -1.8145291134769277 -6.209852660696859 -3.0748136277545726
H -1.7853635847587284 -6.073967517539672 -2.1158287703643524
H -1.7391856622492146 -7.170447187093638 -3.1774950014970615
O 10.959698563946107 -11.2227502687846 7.1751465914347206
H 10.827589869811924 -11.612935001234264 6.298065908488536
H 11.782799908093407 -11.626237397620454 7.489255264391563
O -18.941500028723006 2.1298021726990757 -0.3372696997417268
H -19.622099996031213 2.8178803751061894 -0.2893173403393323
H -18.764348891160573 2.0415160605879334 -1.285839666148335
O -20.07770024780843 0.6637048481884769 -3.9245755758156635
H -19.41726750387934 -0.032560399853536204 -3.7903718053198716
H -20.874151434044197 0.3167146163664438 -3.4953609077721177