194

C -5.0710522388059704 1.0783507462686561 0.47044029850746183
C -3.8153522388059704 0.1782507462686569 0.19534029850746193
C -4.11845223880597 -1.3219492537313435 0.5608402985074619
C -2.96945223880597 -2.3874492537313436 0.7034402985074619
C -2.52015223880597 0.7359507462686565 0.7384402985074618
C -2.20305223880597 0.7852507462686571 2.097440298507462
C -1.5755522388059702 1.205650746268656 -0.18965970149253808
C -0.9533522388059701 1.2695507462686564 2.508640298507462
H -2.91125223880597 0.4298507462686567 2.840840298507462
C -0.32655223880597006 1.6562507462686575 0.21554029850746192
H -1.7850522388059702 1.178550746268657 -1.2573597014925382
C 0.004447761194029898 1.6956507462686563 1.569740298507462
H -0.7158522388059702 1.2676507462686573 3.5705402985074617
H 0.3943477611940298 1.9193507462686572 -0.5551597014925382
C -1.76045223880597 -2.1592492537313435 -0.1734597014925381
C -0.5287522388059701 -1.936549253731343 0.464840298507462
C -1.8068522388059702 -2.121249253731343 -1.5681597014925381
C 0.6114477611940299 -1.614449253731343 -0.2582597014925381
H -0.4544522388059702 -1.954049253731343 1.5506402985074619
C -0.6479522388059701 -1.8270492537313432 -2.2998597014925384
H -2.74345223880597 -2.290549253731343 -2.092259701492538
C 0.5698477611940298 -1.5506492537313434 -1.6506597014925382
H 1.5072477611940298 -1.351949253731343 0.2991402985074618
H -0.7173522388059701 -1.7640492537313435 -3.3840597014925375
C 1.7791477611940298 -1.082849253731343 -2.4255597014925376
H 1.4739477611940297 -0.9102492537313429 -3.464259701492538
H 2.1252477611940295 -0.1337492537313434 -2.0010597014925384
C 1.3965477611940298 2.0964507462686566 1.997440298507462
H 1.51704776119403 1.8448507462686567 3.057640298507462
H 2.1256477611940294 1.5207507462686571 1.4165402985074618
C 3.94864776119403 -1.4275492537313434 -3.522959701492538
H 4.81734776119403 -2.087049253731343 -3.615159701492538
H 3.4305477611940303 -1.3641492537313429 -4.484459701492538
H 4.26984776119403 -0.441449253731343 -3.176459701492538
C 2.60904776119403 -3.4296492537313434 -2.8992597014925376
H 1.9825477611940296 -3.869549253731343 -2.119359701492538
H 2.06294776119403 -3.373349253731343 -3.845759701492538
H 3.5215477611940305 -4.019849253731343 -3.0234597014925377
C 3.7281477611940304 -2.060049253731343 -1.156659701492538
H 3.9048477611940298 -1.032549253731343 -0.8295597014925382
H 3.12924776119403 -2.623249253731343 -0.4404597014925382
H 4.68244776119403 -2.5769492537313434 -1.3005597014925383
C 3.1110477611940297 3.755250746268656 2.588740298507462
H 3.40124776119403 4.809350746268656 2.534540298507462
H 2.9823477611940303 3.461750746268656 3.634840298507462
H 3.86514776119403 3.1392507462686563 2.091540298507462
C 1.99744776119403 3.9574507462686572 0.40494029850746194
H 2.67914776119403 3.230350746268657 -0.04295970149253803
H 1.03214776119403 3.981150746268657 -0.10175970149253821
H 2.4399477611940297 4.958250746268657 0.368240298507462
C 0.7418477611940297 4.4992507462686575 2.475440298507462
H -0.18475223880597014 4.424250746268656 1.901240298507462
H 0.57844776119403 4.189650746268656 3.511940298507462
H 1.1210477611940297 5.524350746268658 2.4432402985074617
N 3.00114776119403 -2.025349253731343 -2.490159701492538
N 1.7831477611940298 3.586450746268657 1.862540298507462
C -3.55075223880597 -3.8435492537313434 0.6444402985074619
H -2.62515223880597 -2.2736492537313433 1.7424402985074618
H -4.67195223880597 -1.3478492537313436 1.5102402985074619
H -4.83415223880597 -1.6757492537313432 -0.1945597014925382
H -3.7169522388059697 0.17335074626865676 -0.900559701492538
H -3.9132522388059705 -4.043149253731343 -0.34225970149253815
H -4.35435223880597 -3.9354492537313432 1.3449402985074619
H -2.78115223880597 -4.545049253731343 0.8904402985074619
H -5.24235223880597 1.138950746268657 1.5249402985074618
H -5.92805223880597 0.6501507462686567 -0.006059701492538094
H -4.89895223880597 2.059650746268657 0.08004029850746197
C -0.6179333479393833 0.6971056448325625 -3.4437362377406684
O -0.10239490458274858 1.2479970130624565 -2.4832601514005592
O -0.055246929850376936 0.4683361896374918 -4.520620630499666
O -1.782131375647984 0.28312662717848736 -3.487470773539874
O 1.7452223607019073 -6.3948709480504995 4.352807058224635
H 2.1224576292286814 -7.21596016291652 4.002845045557207
H 2.1764481510571194 -5.69936009328209 3.833893854565452
O -1.3728349148686554 -5.798999568308155 -0.2525993928282029
H -2.255521740304372 -6.000301167399947 -0.5980107292161467
H -1.1394629570486365 -4.961479108577358 -0.6804532851040181
O -5.951469689649055 3.241894235468732 6.3346298325843495
H -6.14440480415825 2.633664062351012 7.063875645049881
H -6.780495043911747 3.2778092430364465 5.8342409652811025
O -1.591062273993031 9.947470692038692 4.223334285603239
H -1.6379742235052182 9.729775045028 3.280267357349702
H -0.6498386824567479 10.118621911244418 4.377500933098509
O -3.9023793496633643 2.4451696374537857 -3.1497289309885326
H -4.817069376208564 2.1253124555881104 -3.148782650008326
H -3.9669324898858767 3.3399306633688504 -2.7833991029771723
O -1.4226808758142246 -3.98694391788228 5.491883296092372
H -1.6122716146040768 -4.032574099999353 6.441062201855178
H -2.25294211765616 -4.2607135998717665 5.073937874035301
O 0.022365706340536917 4.531431824570547 8.256969392242345
H 0.5318244523378068 4.64733721907091 9.073048483110753
H 0.5000550249889109 3.836574634115315 7.779530030624648
O -0.48052609257139345 4.238613276816033 -6.515790331745493
H -0.2798342636265956 3.6727572085609497 -7.276380271669557
H 0.23887077048157912 4.056880122281752 -5.892570339870585
O 7.975926484668118 4.10369385151282 -3.902875645068644
H 8.505170593512682 3.9643735039829577 -4.702536742607773
H 8.629901789853943 4.1120727691007435 -3.1878875065326526
O 8.204597746298019 1.381996243293453 -0.19418295910999683
H 7.837547608363392 2.2277570385515886 0.10402876156258034
H 8.849377711396212 1.6328738378586918 -0.8726232095765594
O 4.458576340856182 2.5631603540252277 -8.289771860287948
H 4.093003025721852 3.0928503050939993 -7.565374135347803
H 4.969707622019724 1.873330726267477 -7.840503741695364
O -2.4029843857097175 3.477404151859141 4.291473471506713
H -2.6193210938898304 3.9285574238595755 5.1213087025960515
H -3.267252241456978 3.259435308088862 3.91135164765615
O -7.081319474274455 -1.4575902963560643 -3.484401887633101
H -6.66800097779749 -0.5867192260179648 -3.5829856399363873
H -8.023324750806399 -1.2585566382368976 -3.374977913012922
O -6.068387123617754 -2.3992394380077644 6.360984147152824
H -5.121304324422187 -2.216373472780161 6.268455410377326
H -6.263222660909627 -2.164995172089296 7.280837766807878
O 4.281689956425853 -0.6210690851514704 4.185028370093669
H 4.235376573438852 -0.5843332562327401 3.217829886673665
H 3.5349222369916116 -0.07640976611242617 4.475968473370796
O 9.08426023041271 -3.6108290377139407 2.9352480661530023
H 9.60037171789772 -3.740761026625585 2.1254863927925784
H 8.787710843819262 -4.503100460735895 3.16949604003843
O -1.3490623747593649 -0.9491957502379869 11.943322107076542
H -0.6546801129590623 -0.9816143650615698 12.618414445064476
H -0.939663778365436 -1.3591107136681169 11.166582474814383
O 5.097412199287144 6.640749772363266 -2.6091651566596816
H 5.155521333058547 6.607664394649429 -1.6424718013220794
H 5.162381347999608 5.712481127476213 -2.8794581031735165
O -9.61337344338951 -4.192351415191114 8.279459249620283
H -9.661107153826512 -4.332583594423255 7.321845660694289
H -10.238968094732224 -3.4703735175085852 8.441758946999244
O 1.9628651677483422 9.005073106124858 -7.904629666840704
H 1.985047352681839 8.96694605281183 -6.936630888237527
H 2.884777349638255 8.860648173515614 -8.165745181553627
C -13.76717515681165 4.4786578778844826 -9.970281431059572
O -13.065638640365657 3.8876808226346986 -9.201248991196913
O -14.468711673257644 5.069634933134265 -10.73931387092223
O -1.1645192908671973 -6.2873726793843066 -5.809909158358194
H -0.2261296335097579 -6.508327329212878 -5.712076389902417
H -1.5910578813895173 -6.744657462855577 -5.069694728681992
O 2.184183844361227 -16.306150505296802 1.7795733896877228
H 1.2244368551381424 -16.193201873788933 1.8509574230405936
H 2.3010137552492154 -16.799569521775997 0.9538310628092916
O -17.315147785718448 3.015668127178019 11.78901329156784
H -17.3321293604722 2.974139267818593 12.756977307871747
H -16.37666747648719 2.920942047081253 11.567104248861824
O -3.4551343294271466 7.185314665379065 -9.29728301217155
H -2.587606191459281 7.599275511126352 -9.1748138122795
H -4.050737366285098 7.725697857123398 -8.75672314234602
O 11.609781221134266 -3.1996694922560067 -9.382304263223512
H 12.561185191406746 -3.3828574071539737 -9.397797167570268
H 11.449033869977347 -2.726236530231496 -10.212354541137286
O 9.02857917907344 -5.980730112946603 -0.6936114233534632
H 9.433143036923205 -5.40238451064323 -1.3575480213190105
H 8.405593694423096 -6.521130366910565 -1.2023535935444776
O -2.555103970206482 10.220177969401703 6.573273978150889
H -2.937960055492604 9.345904930239028 6.740711213712897
H -1.9568859621954158 10.361104672016003 7.322431387299014
O 1.4952528757580623 3.8538988425012333 -18.40320861605251
H 2.255171467749855 3.5676325510195444 -17.87449063753605
H 0.7594084632497626 3.8572464566503193 -17.77274550185801
O 18.496631743713728 7.407314412171854 -5.296114816855587
H 17.929124641068192 6.645818551527693 -5.488539086553251
H 19.27377227567291 7.267942901654488 -5.857888899510082
O 5.07086888013842 -2.689778954968876 13.920671300521445
H 4.433684209882663 -2.5188870510797736 14.63043112614996
H 5.7119917420753055 -3.2951686828571187 14.322450714589978
O 9.136147468753304 2.445227954759228 -8.972782613461352
H 9.858821353075253 1.809179468618074 -9.083019345527273
H 8.619429895613294 2.0869354957086768 -8.235496096769364
O 1.9004909069472227 -1.1185337965534066 -10.20296956488109
H 1.934117509044762 -1.0679372096785675 -9.235872571850923
H 2.620434257620979 -0.538362937316228 -10.492875222315776
O -1.5426666464280987 -12.178973319383555 -12.388740317470518
H -0.8935219439457533 -11.530050614640716 -12.078131503351628
H -1.9642946681091513 -11.74455104109202 -13.145357155610746
O -8.510966625814842 -22.76682046961224 -3.6682717477519633
H -8.620109010602324 -23.034090058064958 -4.593270268740629
H -8.33511686131415 -21.815249039263534 -3.718775386919576
O -6.671081605781576 1.1346506079006489 -9.692560189322418
H -7.102772226164115 0.26954337670813966 -9.757367933552345
H -5.752781439781188 0.9575851752341511 -9.94620281582333
O -7.356589904762385 -7.258900067469555 -5.161821991017298
H -7.941114809927531 -7.250514452666401 -5.934627059327574
H -7.457186178924408 -6.372862176484024 -4.782639726581536
O 6.880222431810797 -6.091129346116183 -8.544331496826862
H 7.4833309105296895 -6.805864181676319 -8.79806686021598
H 6.292331804692962 -5.998409843318816 -9.30902074655384
O -3.99696518773675 -2.2276925990187246 -22.49081827003208
H -4.6260971472759 -1.8584667155340073 -23.128652559915714
H -3.474012457266042 -2.853953699904351 -23.01357961090452
O 8.557353163140597 -9.002745967577859 -12.058936798125808
H 8.63780035040801 -8.924262231001734 -13.021400257200392
H 7.990760937299235 -9.77883172805382 -11.933932452991
O 2.0061351752099847 -13.75571853610718 7.422565192090062
H 2.362890438220777 -13.198644434428802 8.13063403369611
H 2.6779994892381493 -14.444054556729027 7.305288550980496