194

C -5.0710522388059704 1.0783507462686561 0.47044029850746183
C -3.8153522388059704 0.1782507462686569 0.19534029850746193
C -4.11845223880597 -1.3219492537313435 0.5608402985074619
C -2.96945223880597 -2.3874492537313436 0.7034402985074619
C -2.52015223880597 0.7359507462686565 0.7384402985074618
C -2.20305223880597 0.7852507462686571 2.097440298507462
C -1.5755522388059702 1.205650746268656 -0.18965970149253808
C -0.9533522388059701 1.2695507462686564 2.508640298507462
H -2.91125223880597 0.4298507462686567 2.840840298507462
C -0.32655223880597006 1.6562507462686575 0.21554029850746192
H -1.7850522388059702 1.178550746268657 -1.2573597014925382
C 0.004447761194029898 1.6956507462686563 1.569740298507462
H -0.7158522388059702 1.2676507462686573 3.5705402985074617
H 0.3943477611940298 1.9193507462686572 -0.5551597014925382
C -1.76045223880597 -2.1592492537313435 -0.1734597014925381
C -0.5287522388059701 -1.936549253731343 0.464840298507462
C -1.8068522388059702 -2.121249253731343 -1.5681597014925381
C 0.6114477611940299 -1.614449253731343 -0.2582597014925381
H -0.4544522388059702 -1.954049253731343 1.5506402985074619
C -0.6479522388059701 -1.8270492537313432 -2.2998597014925384
H -2.74345223880597 -2.290549253731343 -2.092259701492538
C 0.5698477611940298 -1.5506492537313434 -1.6506597014925382
H 1.5072477611940298 -1.351949253731343 0.2991402985074618
H -0.7173522388059701 -1.7640492537313435 -3.3840597014925375
C 1.7791477611940298 -1.082849253731343 -2.4255597014925376
H 1.4739477611940297 -0.9102492537313429 -3.464259701492538
H 2.1252477611940295 -0.1337492537313434 -2.0010597014925384
C 1.3965477611940298 2.0964507462686566 1.997440298507462
H 1.51704776119403 1.8448507462686567 3.057640298507462
H 2.1256477611940294 1.5207507462686571 1.4165402985074618
C 3.94864776119403 -1.4275492537313434 -3.522959701492538
H 4.81734776119403 -2.087049253731343 -3.615159701492538
H 3.4305477611940303 -1.3641492537313429 -4.484459701492538
H 4.26984776119403 -0.441449253731343 -3.176459701492538
C 2.60904776119403 -3.4296492537313434 -2.8992597014925376
H 1.9825477611940296 -3.869549253731343 -2.119359701492538
H 2.06294776119403 -3.373349253731343 -3.845759701492538
H 3.5215477611940305 -4.019849253731343 -3.0234597014925377
C 3.7281477611940304 -2.060049253731343 -1.156659701492538
H 3.9048477611940298 -1.032549253731343 -0.8295597014925382
H 3.12924776119403 -2.623249253731343 -0.4404597014925382
H 4.68244776119403 -2.5769492537313434 -1.3005597014925383
C 3.1110477611940297 3.755250746268656 2.588740298507462
H 3.40124776119403 4.809350746268656 2.534540298507462
H 2.9823477611940303 3.461750746268656 3.634840298507462
H 3.86514776119403 3.1392507462686563 2.091540298507462
C 1.99744776119403 3.9574507462686572 0.40494029850746194
H 2.67914776119403 3.230350746268657 -0.04295970149253803
H 1.03214776119403 3.981150746268657 -0.10175970149253821
H 2.4399477611940297 4.958250746268657 0.368240298507462
C 0.7418477611940297 4.4992507462686575 2.475440298507462
H -0.18475223880597014 4.424250746268656 1.901240298507462
H 0.57844776119403 4.189650746268656 3.511940298507462
H 1.1210477611940297 5.524350746268658 2.4432402985074617
N 3.00114776119403 -2.025349253731343 -2.490159701492538
N 1.7831477611940298 3.586450746268657 1.862540298507462
C -3.55075223880597 -3.8435492537313434 0.6444402985074619
H -2.62515223880597 -2.2736492537313433 1.7424402985074618
H -4.67195223880597 -1.3478492537313436 1.5102402985074619
H -4.83415223880597 -1.6757492537313432 -0.1945597014925382
H -3.7169522388059697 0.17335074626865676 -0.900559701492538
H -3.9132522388059705 -4.043149253731343 -0.34225970149253815
H -4.35435223880597 -3.9354492537313432 1.3449402985074619
H -2.78115223880597 -4.545049253731343 0.8904402985074619
H -5.24235223880597 1.138950746268657 1.5249402985074618
H -5.92805223880597 0.6501507462686567 -0.006059701492538094
H -4.89895223880597 2.059650746268657 0.08004029850746197
C 0.08397864395020616 -4.428648537568449 1.4963846082255636
O 0.7197477206457992 -3.7690959192315954 2.304198648313153
O 0.25019983740774543 -5.63299923419958 1.2715705106478925
O -0.8240275066570102 -3.9938129719035564 0.7786860324346135
O 5.373390495852265 5.8598215754380005 -6.025445253237333
H 5.100706216088386 6.428843852893618 -5.290037687170136
H 4.682891987396306 5.181124504851764 -6.064739533963116
O 0.25150964379836704 10.620153084121208 1.1820502748268953
H 0.6240221678065638 9.949954194484906 0.5895680179724709
H 0.9701370132218061 11.260819865049946 1.2919717196407166
O -3.2064853422727593 3.0861772345071063 6.495516913762737
H -4.036237513216646 3.5812783745384773 6.5686848907304265
H -3.450906812065561 2.18183568708724 6.7432798145662405
O -2.0440947539839867 -8.462509902217173 -1.8026945410290298
H -1.8464691136415303 -8.062094655994573 -2.662682386159255
H -2.9440435682577206 -8.161996864278823 -1.6058545298108802
O 4.370469860627377 -4.441317153027652 1.3107173456601995
H 4.306125948049268 -5.130533997853211 0.6326263793268896
H 4.322557632935627 -4.9297859569024 2.1462199431300015
O -4.203782571195336 5.449815566666683 5.157057998517785
H -3.2775665092282638 5.609246454216173 5.393009170477987
H -4.651902526269088 6.274614588850286 5.397592867444667
O 0.14406169249387854 0.7439118996771271 7.841019882488864
H 0.7864257174706281 0.039184235080499036 8.01334148609054
H 0.5792570283670395 1.543568041350517 8.172858727439653
O -4.7982185789426826 6.298790089512567 -11.166647065865027
H -4.705009087869371 6.632604848783835 -10.261745383820772
H -4.7593189089202586 5.3358105775637 -11.066052734320603
O -8.927888876451203 2.0767608777788 0.3354637828103484
H -8.196701442404196 2.5450116825362135 0.7656654530021209
H -8.501510640865014 1.3180822274303923 -0.09064682492422371
O 3.978990108229058 -3.55094641828254 -7.725183626927334
H 4.120317342819106 -4.4565722261755445 -7.410801907132317
H 4.062209870902054 -3.009947023672538 -6.92558618418989
O -4.167306859276877 -0.48176223984601974 7.139191142432983
H -5.02479772714779 -0.03047054980709607 7.13564446514277
H -3.977623023147223 -0.631286546217082 6.200775206711838
O 0.0006040353167211521 -1.8061354555391222 -8.686837888516374
H -0.3000687311599257 -1.8853017708726663 -7.769071066869507
H -0.7734490194052128 -2.063709802489689 -9.209771219418728
O -3.510501827559873 -0.25564985346318614 -4.054851195925792
H -2.663038675940846 -0.6841838450984385 -4.247548319830392
H -3.510182393955643 0.5295596802963307 -4.622660873859634
O 1.5190771270510968 -0.8352353950431849 5.055700874614882
H 1.4285733268828065 -0.5228837079252202 4.142895943312657
H 2.0863326684143595 -0.17101359631478874 5.475215471722879
O -1.2453107241740284 8.132282521191971 -0.7403920216685969
H -0.8507139272569688 8.407168555161816 0.10085609457959199
H -1.6865042051215555 8.93189206688732 -1.06432848318888
O 4.949714454080537 3.7615963461367086 -8.502052569925393
H 5.001984815664103 3.6939309622403895 -7.536828988560904
H 4.016015300743208 3.956569784822415 -8.672795632930086
O 7.457597686401352 -1.159990250270344 -5.225966977543012
H 7.939914076669967 -1.6754743466827937 -5.889754897683245
H 7.426821801008481 -0.26675190855106157 -5.6003198245481745
O -6.782407361804579 -0.29013647403267473 4.65069557754028
H -7.303898442589399 0.09716062601206432 5.369733383124115
H -7.3612869437082935 -0.9756059444372033 4.284646429066589
O -7.186520010097686 -5.227482321623794 -5.173212754651348
H -7.241349887564687 -5.161090155665191 -6.138382750940229
H -7.887925937739913 -5.854626514456802 -4.941519357325956
O -0.9711442747097452 2.9170575377326733 6.929854178545168
H -0.9831304859130192 2.7878282173769935 5.969581576415231
H -0.11544889463532226 3.339306482401544 7.098534911129873
C 13.739317937664222 -4.216094481249836 -12.745810681669207
O 13.674217868957335 -3.897128262913885 -11.593924927822576
O 13.804418006371106 -4.53506069958579 -13.897696435515837
O -10.805940797049118 6.069498782898486 17.452355127557265
H -11.63428275492287 6.562943879461227 17.355768925623103
H -11.054849115656467 5.153705515695147 17.256576464334998
O -5.9355390819673675 -6.854202502955728 13.673989249845533
H -5.9642893688393155 -7.7889807495691645 13.927623647282251
H -6.2626264655463615 -6.848999347349888 12.76187702266338
O 5.280448544137206 12.991895329830479 0.7684944554730142
H 5.307141579703911 13.32588069210554 -0.14074072672036675
H 4.494005326487494 13.411169618618926 1.148860174845448
O -7.336851169813887 -11.634169904661608 -8.469177667171184
H -7.329024788074677 -11.90274400170751 -7.538170653747091
H -6.877484619189374 -10.780974435748139 -8.470522394974806
O 6.41857052508826 -12.081247965068377 3.354696931812252
H 6.54280929116273 -12.152762165276464 2.3963557581831045
H 7.0921264308689995 -12.672666506994164 3.722811716022642
O 1.7264694722778593 -16.17959519197799 4.584041237633704
H 1.0885744991207913 -15.64839474517845 5.083924669486481
H 2.0915425748742993 -16.788640058492913 5.2433954100118205
O -10.77702943441486 -13.685366460511586 -3.687948783254019
H -10.439401883285074 -14.07203111509935 -2.8660817389514563
H -11.411630164131068 -13.016988186910435 -3.3887593089712515
O -19.198748313474404 -14.777762071528876 7.101344673355234
H -20.10627913640835 -14.461285013859012 7.224622547661438
H -18.871303129183012 -14.907090415553192 8.00412691454981
O 12.53265940352304 2.1657783637741037 -2.773346445049958
H 12.31511385252868 1.7947797816066728 -3.6416789517386787
H 12.474026280315956 3.1237574548761926 -2.906763693463352
O 2.1309129544327945 17.43343654976201 -10.218261016240989
H 1.9395218499929419 17.181017774678093 -9.302498184484627
H 2.973044724596148 16.99450358513795 -10.410910642630107
O 2.1145311109017477 0.8158345494504928 -4.443557544610247
H 1.8944763922943424 0.3720815751069595 -5.276400011995216
H 2.8692170758845696 1.3794829025546274 -4.670959331324738
O 11.716603771889732 5.177833225713908 0.5474583295042021
H 11.998391444570979 6.104748560559633 0.5276839406963352
H 10.795739896754409 5.2194683857584465 0.8461859332150443
O 1.0972110874758076 -10.867747330999022 16.95289101979546
H 1.3077930816660714 -9.924860893406326 16.8781397895273
H 1.7857369282117759 -11.21556958572474 17.539332653767968
O -2.4280906522625205 11.044756701537137 -13.777400698422408
H -2.6882535109120287 11.879024454975221 -14.196065193516862
H -1.7568146146481132 10.682376060504769 -14.37492115550289
O 6.6650141453603275 -0.17572223752067018 18.994858943602747
H 6.67121449789254 0.6451261042453513 19.509773414508796
H 7.594708968332548 -0.30970755500026126 18.7567887540818
O -5.7292328485355135 18.49388488953486 -3.014107520180203
H -6.206124948878468 18.135950065089332 -3.777929451640431
H -6.159505592008626 18.076340107216165 -2.2528692754219968
O 7.210429788854673 11.231621264376471 15.279052245375516
H 7.491098344716516 11.226046017075186 14.351603359847067
H 7.348717709231568 12.148651193669332 15.559933900452815
O 4.903531463527777 -0.3911711970580889 -17.900332467045494
H 4.104788159863562 -0.49240980573270754 -18.43952374652357
H 4.608159642043553 -0.6036646887168491 -17.00224341390223
O -9.321468044360197 11.16827188354122 3.895184392287336
H -9.81960501830744 10.9145612796643 4.6866752902559075
H -9.995807474601698 11.221783036600367 3.2013797846204173
O -15.537085609944677 0.29112687940719084 4.732762481466939
H -15.980321257137753 1.0159391715169388 4.266761774210019
H -14.67881163091089 0.21774477743231113 4.288980115522488