194

C -5.0710522388059704 1.0783507462686561 0.47044029850746183
C -3.8153522388059704 0.1782507462686569 0.19534029850746193
C -4.11845223880597 -1.3219492537313435 0.5608402985074619
C -2.96945223880597 -2.3874492537313436 0.7034402985074619
C -2.52015223880597 0.7359507462686565 0.7384402985074618
C -2.20305223880597 0.7852507462686571 2.097440298507462
C -1.5755522388059702 1.205650746268656 -0.18965970149253808
C -0.9533522388059701 1.2695507462686564 2.508640298507462
H -2.91125223880597 0.4298507462686567 2.840840298507462
C -0.32655223880597006 1.6562507462686575 0.21554029850746192
H -1.7850522388059702 1.178550746268657 -1.2573597014925382
C 0.004447761194029898 1.6956507462686563 1.569740298507462
H -0.7158522388059702 1.2676507462686573 3.5705402985074617
H 0.3943477611940298 1.9193507462686572 -0.5551597014925382
C -1.76045223880597 -2.1592492537313435 -0.1734597014925381
C -0.5287522388059701 -1.936549253731343 0.464840298507462
C -1.8068522388059702 -2.121249253731343 -1.5681597014925381
C 0.6114477611940299 -1.614449253731343 -0.2582597014925381
H -0.4544522388059702 -1.954049253731343 1.5506402985074619
C -0.6479522388059701 -1.8270492537313432 -2.2998597014925384
H -2.74345223880597 -2.290549253731343 -2.092259701492538
C 0.5698477611940298 -1.5506492537313434 -1.6506597014925382
H 1.5072477611940298 -1.351949253731343 0.2991402985074618
H -0.7173522388059701 -1.7640492537313435 -3.3840597014925375
C 1.7791477611940298 -1.082849253731343 -2.4255597014925376
H 1.4739477611940297 -0.9102492537313429 -3.464259701492538
H 2.1252477611940295 -0.1337492537313434 -2.0010597014925384
C 1.3965477611940298 2.0964507462686566 1.997440298507462
H 1.51704776119403 1.8448507462686567 3.057640298507462
H 2.1256477611940294 1.5207507462686571 1.4165402985074618
C 3.94864776119403 -1.4275492537313434 -3.522959701492538
H 4.81734776119403 -2.087049253731343 -3.615159701492538
H 3.4305477611940303 -1.3641492537313429 -4.484459701492538
H 4.26984776119403 -0.441449253731343 -3.176459701492538
C 2.60904776119403 -3.4296492537313434 -2.8992597014925376
H 1.9825477611940296 -3.869549253731343 -2.119359701492538
H 2.06294776119403 -3.373349253731343 -3.845759701492538
H 3.5215477611940305 -4.019849253731343 -3.0234597014925377
C 3.7281477611940304 -2.060049253731343 -1.156659701492538
H 3.9048477611940298 -1.032549253731343 -0.8295597014925382
H 3.12924776119403 -2.623249253731343 -0.4404597014925382
H 4.68244776119403 -2.5769492537313434 -1.3005597014925383
C 3.1110477611940297 3.755250746268656 2.588740298507462
H 3.40124776119403 4.809350746268656 2.534540298507462
H 2.9823477611940303 3.461750746268656 3.634840298507462
H 3.86514776119403 3.1392507462686563 2.091540298507462
C 1.99744776119403 3.9574507462686572 0.40494029850746194
H 2.67914776119403 3.230350746268657 -0.04295970149253803
H 1.03214776119403 3.981150746268657 -0.10175970149253821
H 2.4399477611940297 4.958250746268657 0.368240298507462
C 0.7418477611940297 4.4992507462686575 2.475440298507462
H -0.18475223880597014 4.424250746268656 1.901240298507462
H 0.57844776119403 4.189650746268656 3.511940298507462
H 1.1210477611940297 5.524350746268658 2.4432402985074617
N 3.00114776119403 -2.025349253731343 -2.490159701492538
N 1.7831477611940298 3.586450746268657 1.862540298507462
C -3.55075223880597 -3.8435492537313434 0.6444402985074619
H -2.62515223880597 -2.2736492537313433 1.7424402985074618
H -4.67195223880597 -1.3478492537313436 1.5102402985074619
H -4.83415223880597 -1.6757492537313432 -0.1945597014925382
H -3.7169522388059697 0.17335074626865676 -0.900559701492538
H -3.9132522388059705 -4.043149253731343 -0.34225970149253815
H -4.35435223880597 -3.9354492537313432 1.3449402985074619
H -2.78115223880597 -4.545049253731343 0.8904402985074619
H -5.24235223880597 1.138950746268657 1.5249402985074618
H -5.92805223880597 0.6501507462686567 -0.006059701492538094
H -4.89895223880597 2.059650746268657 0.08004029850746197
C 0.8921198151869498 2.4866277331380098 -3.1362305288069905
O -0.2731598633502888 2.486884601303607 -2.770308811213057
O 1.2734321346381805 2.654260647382706 -4.300331720798715
O 1.8703904740499566 2.3186927653685467 -2.399051616325082
O -8.208873399215973 1.0247170693149994 2.9569980149035184
H -8.171696776143651 0.76303294191655 2.02473910608867
H -7.707411835181265 1.8533037774497532 2.987695102685235
O 3.745034283187984 -6.906464287447898 8.595251057837961
H 3.8378941224690433 -6.800293043538922 9.553933525663213
H 3.486773640050529 -7.834051703316378 8.486416456590636
O 1.6792280016943393 10.200354891219042 4.3176658309964004
H 1.751376927963333 9.845442033107696 3.418889578258563
H 1.1578863513072157 9.534696737536015 4.791019874294786
O -3.7655785714880334 -6.094532069032114 -4.511018550704527
H -4.251004575707651 -5.6244937261121395 -5.205563659039775
H -3.8865856789470326 -7.029977762753802 -4.732965792953575
O -6.644552996066734 11.0081739004584 -1.1471854004642115
H -6.774901643532319 10.226140098992808 -1.7043206805974744
H -7.121451931134203 10.796050852008605 -0.33077057799472787
O -0.0051451138777633965 -9.09002879159464 -5.470903786922362
H 0.040065186458510205 -8.895697535256787 -4.522663971024688
H 0.9162888741070656 -9.257398143733731 -5.719718678058152
O 10.203885054025431 -7.48796231019595 -0.1616221786528964
H 10.255292085019901 -8.290550834447806 0.3789112012632392
H 9.618100728849255 -7.73533462055531 -0.8928031471862445
O 4.323179553318533 6.58481684833116 -0.13345576176064966
H 4.5794915248641495 6.300939353008698 0.7568728841852425
H 5.101353082120639 7.060691155203747 -0.46049023613638207
O 8.995198897647029 5.603324158061332 -3.5569443798622604
H 8.804877989256376 4.7585525720907205 -3.9918078943884336
H 9.816205393605436 5.436236189705124 -3.070126252914739
O 7.648064502249675 -2.990666823773041 5.079417237104025
H 7.454040579120969 -2.47286060415479 4.28367934490685
H 7.542333348072046 -3.9099969579100504 4.791989034236086
O -2.226381862736191 3.0228622372193503 6.934409312458921
H -2.4398607086407047 2.8973843172040232 7.871238769105063
H -1.3041060761122312 3.320027864168671 6.94227746770481
O -4.916094181874197 6.939157373846911 3.0479147657439216
H -4.735927509028035 6.549504772676789 2.179192613789165
H -5.154719574425039 6.1795583005206485 3.600209174670754
O -0.09553144127285496 -7.572497464730604 -9.672035671995564
H 0.30672053053700843 -7.662092635654967 -8.795033155795005
H 0.6610551640715236 -7.452106370940724 -10.26536916797362
O 3.086323215251134 0.01117175401241921 -6.437105639925341
H 2.9691160967948362 -0.14662537157453515 -7.385962802747895
H 3.6742327017736147 0.7804861425550742 -6.398638101167153
O -3.744624925035152 3.992964382151409 -1.780630346343715
H -3.689169090883526 4.879263264247014 -1.392859410152476
H -3.0281251042425166 3.9775786950639977 -2.4328214469706455
O -7.908348122601929 -0.4172258181755202 -2.8098204103401483
H -7.259181367285263 -0.26269841413410067 -2.1072030449898085
H -7.448389008510646 -0.14387243214820888 -3.6177049837859867
O -5.510711457620163 -0.9569663601991647 5.302990926475246
H -5.5565552566063925 -0.39924789921571335 6.09407614392831
H -5.842034614873288 -1.8166602039662654 5.603179874900681
O 4.279970965808649 -1.2830122781714506 6.25723896852337
H 4.262109074956347 -1.337470513413288 5.28993208321265
H 3.876073608285258 -2.1151409528684497 6.5460135131644055
O 7.4681014430200285 5.100038290165388 4.387622183550774
H 7.272474077201323 4.700970295206329 3.526551904164596
H 7.021824222474609 4.518916891849844 5.0217329839177465
O -2.606542035694244 -6.217330392619538 7.365249908985622
H -2.6711751065937106 -6.26032111701843 6.399360825983975
H -2.94327108996624 -7.076518391706646 7.660836563849774
C 1.2393542939012159 -10.62091924251234 13.55212438616986
O 1.5549597642495998 -10.145645441172956 12.499828677660798
O 0.9237488235528327 -11.096193043851724 14.60442009467892
O -0.8218842901335748 12.958082647220955 -5.485551185134813
H -1.4617205157740116 13.643403285973658 -5.240780714371315
H -0.3506061422538753 13.337478568389297 -6.242464381367977
O -2.482360135831229 -9.149577598913845 6.725286318623741
H -2.46042095619927 -9.505228100484956 7.626396051136546
H -1.6111484153006812 -8.740244457662113 6.613937938378715
O -6.41537751688271 -1.3686617918351114 -16.6782061694923
H -5.794991411533847 -0.625561848972273 -16.721690788696293
H -6.842782023930958 -1.3679397482381153 -17.547853690220027
O 4.463505320196293 15.214415779470368 -4.907591150040947
H 4.279389742954423 15.324732804944576 -3.9626578375752377
H 4.773260004875146 14.299149515384128 -4.980403549020257
O 5.639683905304077 5.96231063274344 14.257623066868701
H 5.656023082039067 5.914745455155585 15.225320303655426
H 6.575814704826099 5.961109288171981 14.007383926729757
O -0.8290122678694098 -2.8788587866537823 7.59842279004045
H -1.1346698268559363 -3.019964362000285 6.689780929822393
H 0.06852945890934725 -2.5295381554768603 7.491858773481567
O -16.378386442938204 2.9001226481381615 -7.114221271615881
H -17.29333381266634 2.5987592050467407 -7.219191470699497
H -16.011790963755523 2.3057310254118066 -6.442456210172856
O 4.214965912155984 -1.2157881915141233 2.74408932970163
H 3.4914602839207447 -0.6215569974644207 2.9938817451793582
H 4.047636696630165 -2.01834767856177 3.2606753803082364
O -1.887643890845034 -14.75410175269153 -5.914743175254911
H -1.0906865036019209 -15.034468410526065 -6.389317528747938
H -2.32408467551802 -14.145292139032707 -6.529423775315317
O 12.643493435765638 -2.79934083488355 12.298609519503243
H 12.751511577957782 -2.7167339089826523 13.258023681192846
H 13.44521453691948 -3.261866165606553 12.011772390274391
O -8.937213151987923 2.0987505839948257 7.554512462457564
H -8.486622803205293 1.2931842775499836 7.259557177024728
H -9.712435132557113 2.1584209391029496 6.976211265965932
O 7.493477831487639 -7.211065826397982 5.27821602939885
H 6.9861796862011065 -7.182915492822326 6.103336328148327
H 7.5085738790405845 -6.288844199059978 4.98116161734893
O 15.554089924622627 5.305026427122248 -11.005314748229534
H 15.38957909126923 5.22094522424049 -10.054087176125293
H 15.795210294255302 6.2365507095418575 -11.119706281617418
O -2.103732624272183 -18.23391048230209 -3.312808836261346
H -2.4817890792485873 -19.090970553781023 -3.0648396695748277
H -1.175665702811446 -18.43459662461973 -3.5061448284409016
O 14.234961178121035 0.4328029463208227 -0.43107619243864215
H 13.576227428834427 -0.272428297035924 -0.3434057992360098
H 14.669777729449665 0.24321532925249653 -1.2760336152979437
O -6.1826291699978855 6.366670662391237 12.097604144605757
H -5.22580596571837 6.30818392128103 11.956055517743504
H -6.402976078148211 5.539729674257488 12.552112435523505
O -9.979439662453773 -12.511161135568017 15.451243829541406
H -9.873281504742485 -12.551136548119274 16.41358460538056
H -9.323104311217609 -13.14082130145326 15.117007496215614
O -5.7631951627720905 9.732097906156179 -6.834244899336138
H -5.4352225776746845 9.450573984990928 -5.966981604750076
H -6.303144504971963 10.512483104865334 -6.638245935579699
O 3.4679360416636182 -1.8981459361954278 12.739313159107637
H 3.4385350890221473 -2.540592011579545 13.464134503376224
H 4.15631105332687 -2.2414500844198515 12.150038987410353
O -9.146867861344372 0.6961794877069343 -11.548117621412562
H -8.185545671452221 0.7662270354513847 -11.647718551006356
H -9.273904279276719 0.5522898650724848 -10.598317921835312