194

C -5.0710522388059704 1.0783507462686561 0.47044029850746183
C -3.8153522388059704 0.1782507462686569 0.19534029850746193
C -4.11845223880597 -1.3219492537313435 0.5608402985074619
C -2.96945223880597 -2.3874492537313436 0.7034402985074619
C -2.52015223880597 0.7359507462686565 0.7384402985074618
C -2.20305223880597 0.7852507462686571 2.097440298507462
C -1.5755522388059702 1.205650746268656 -0.18965970149253808
C -0.9533522388059701 1.2695507462686564 2.508640298507462
H -2.91125223880597 0.4298507462686567 2.840840298507462
C -0.32655223880597006 1.6562507462686575 0.21554029850746192
H -1.7850522388059702 1.178550746268657 -1.2573597014925382
C 0.004447761194029898 1.6956507462686563 1.569740298507462
H -0.7158522388059702 1.2676507462686573 3.5705402985074617
H 0.3943477611940298 1.9193507462686572 -0.5551597014925382
C -1.76045223880597 -2.1592492537313435 -0.1734597014925381
C -0.5287522388059701 -1.936549253731343 0.464840298507462
C -1.8068522388059702 -2.121249253731343 -1.5681597014925381
C 0.6114477611940299 -1.614449253731343 -0.2582597014925381
H -0.4544522388059702 -1.954049253731343 1.5506402985074619
C -0.6479522388059701 -1.8270492537313432 -2.2998597014925384
H -2.74345223880597 -2.290549253731343 -2.092259701492538
C 0.5698477611940298 -1.5506492537313434 -1.6506597014925382
H 1.5072477611940298 -1.351949253731343 0.2991402985074618
H -0.7173522388059701 -1.7640492537313435 -3.3840597014925375
C 1.7791477611940298 -1.082849253731343 -2.4255597014925376
H 1.4739477611940297 -0.9102492537313429 -3.464259701492538
H 2.1252477611940295 -0.1337492537313434 -2.0010597014925384
C 1.3965477611940298 2.0964507462686566 1.997440298507462
H 1.51704776119403 1.8448507462686567 3.057640298507462
H 2.1256477611940294 1.5207507462686571 1.4165402985074618
C 3.94864776119403 -1.4275492537313434 -3.522959701492538
H 4.81734776119403 -2.087049253731343 -3.615159701492538
H 3.4305477611940303 -1.3641492537313429 -4.484459701492538
H 4.26984776119403 -0.441449253731343 -3.176459701492538
C 2.60904776119403 -3.4296492537313434 -2.8992597014925376
H 1.9825477611940296 -3.869549253731343 -2.119359701492538
H 2.06294776119403 -3.373349253731343 -3.845759701492538
H 3.5215477611940305 -4.019849253731343 -3.0234597014925377
C 3.7281477611940304 -2.060049253731343 -1.156659701492538
H 3.9048477611940298 -1.032549253731343 -0.8295597014925382
H 3.12924776119403 -2.623249253731343 -0.4404597014925382
H 4.68244776119403 -2.5769492537313434 -1.3005597014925383
C 3.1110477611940297 3.755250746268656 2.588740298507462
H 3.40124776119403 4.809350746268656 2.534540298507462
H 2.9823477611940303 3.461750746268656 3.634840298507462
H 3.86514776119403 3.1392507462686563 2.091540298507462
C 1.99744776119403 3.9574507462686572 0.40494029850746194
H 2.67914776119403 3.230350746268657 -0.04295970149253803
H 1.03214776119403 3.981150746268657 -0.10175970149253821
H 2.4399477611940297 4.958250746268657 0.368240298507462
C 0.7418477611940297 4.4992507462686575 2.475440298507462
H -0.18475223880597014 4.424250746268656 1.901240298507462
H 0.57844776119403 4.189650746268656 3.511940298507462
H 1.1210477611940297 5.524350746268658 2.4432402985074617
N 3.00114776119403 -2.025349253731343 -2.490159701492538
N 1.7831477611940298 3.586450746268657 1.862540298507462
C -3.55075223880597 -3.8435492537313434 0.6444402985074619
H -2.62515223880597 -2.2736492537313433 1.7424402985074618
H -4.67195223880597 -1.3478492537313436 1.5102402985074619
H -4.83415223880597 -1.6757492537313432 -0.1945597014925382
H -3.7169522388059697 0.17335074626865676 -0.900559701492538
H -3.9132522388059705 -4.043149253731343 -0.34225970149253815
H -4.35435223880597 -3.9354492537313432 1.3449402985074619
H -2.78115223880597 -4.545049253731343 0.8904402985074619
H -5.24235223880597 1.138950746268657 1.5249402985074618
H -5.92805223880597 0.6501507462686567 -0.006059701492538094
H -4.89895223880597 2.059650746268657 0.08004029850746197
C 0.7729088493266315 -5.13234178610422 0.6868601596557862
O 1.228190764159709 -6.105897373541126 0.10661590522812947
O -0.4121811500859375 -4.982851268504151 1.0059929573121558
O 1.4268159867083083 -4.145939869369186 1.0447220027499486
O -7.392794282496505 -1.4139282373652162 5.709638440354993
H -7.5008026716271825 -1.1089729066115703 4.796236124273886
H -7.974639475869235 -2.186533032870826 5.768798775130793
O -0.9975026657001411 -10.219170755583022 0.3762122408104558
H -0.6517811184647404 -11.029623730089433 -0.027036993275453725
H -1.9254298608319163 -10.42755830672938 0.5619208657100536
O 0.3148226043559529 -2.9018602629780417 -6.002838652830286
H -0.13482650987993097 -3.3848711531279996 -5.293272932855434
H -0.37411385285149673 -2.774279071712086 -6.672205175645408
O 5.097829526261637 7.394744700069239 1.598475239705242
H 4.851600464288565 7.348726366022599 2.534541967493082
H 4.5978277078703345 8.153505117759106 1.2619596316682755
O -7.25347068189307 2.433789440453988 0.555394913339569
H -7.649935827661601 3.139518286511037 1.0880576029788238
H -8.014447433384648 1.9260099296052962 0.23596370579780634
O -8.42888272058631 3.4877963064169943 5.240749738748256
H -7.977040283888034 3.89938884643214 4.488820652795037
H -7.707221581591691 3.2189781865810603 5.8288857461588375
O 9.545030284515438 -4.08197824805366 2.5300478124752974
H 9.205978398597848 -3.7320933924221844 1.6924370655555434
H 10.374082702210389 -3.5993565606110725 2.666833556704095
O 1.5815819272120046 6.127819646926298 -4.079441522100568
H 0.7711151818326165 6.453657420599976 -3.659988596515916
H 1.4111232389175288 6.228817017152654 -5.027969492743651
O 3.6407578107323486 -5.61669526415992 -1.470508423346394
H 3.393781274024498 -6.525867416666265 -1.243845801101841
H 4.608234215752857 -5.616505336664035 -1.4161824262903093
O 9.641781934546806 0.7193504065126355 3.5379091192314966
H 9.299185050207734 0.9762877308851694 2.6686692541278276
H 9.549430627945556 -0.24516181502723922 3.5501302063049684
O 5.403954088678891 -0.36729794600673493 7.122020587091447
H 5.721540764417905 -0.9249065928812789 6.395949889966309
H 4.631411560421665 -0.8432662480763065 7.462012001334424
O -7.682866921351056 5.432237452325988 -2.0234467986584317
H -8.095646939656291 5.783146600977502 -2.8268413360935574
H -8.349591397033905 4.82905797857033 -1.6620399084843824
O -0.0717033463107091 -4.477157273055536 4.244149643815379
H 0.28666940930316714 -5.157724194400185 4.83352642525929
H 0.3608369671087307 -4.651686371789065 3.39479081784
O 2.0383804765416125 1.2111980985038322 7.998887152744799
H 1.7219161271619121 1.216755985777729 7.083034117394294
H 2.7366489400639056 1.882967514918422 8.009324983947574
O 6.722617857175216 4.803558042148615 -3.783931478247995
H 5.757229211606206 4.7261677512247875 -3.815599486981757
H 6.921689482574567 5.50986838213551 -4.416749094855226
O 2.1413907933292773 1.071671269547867 10.152497113694807
H 2.463181671367777 0.4576625389965123 10.829557869105965
H 1.764152358109851 1.8047687416693892 10.661634819686256
O 6.997869147669018 3.6196692065589757 4.389557347899891
H 6.619555095224939 4.341579380762308 3.8654471161689554
H 6.298539794286105 3.3988326937468507 5.022906883627215
O 2.0052448601409405 -7.0724052321680535 -5.386417062035893
H 2.5092212676780368 -7.899990003793812 -5.377552338738123
H 1.3400782856159807 -7.21082006934134 -6.0773271178933985
O 7.317047527873809 -4.064341034528702 -4.589358587703339
H 7.709950343009538 -3.7303202007722214 -3.7689776899643395
H 6.87207462078033 -4.881855157711044 -4.31985587036976
O 3.4821183589864213 11.540483912786122 1.2270727807994595
H 3.247199064033325 11.055657128935236 0.421639188614759
H 3.8089556983761876 10.853287864717874 1.8269901829474564
C -1.3835462362470725 11.236069518245266 -6.069311459574814
O -2.103473825528858 10.537279286541029 -5.416460224173012
O -0.6636186469652879 11.934859749949503 -6.722162694976616
O 5.723935725258926 -16.091974662289246 -0.53247481754847
H 5.65280829492488 -16.53070819757704 -1.3935329634178095
H 4.825493707975573 -15.774391901196575 -0.35667642240057373
O -10.313556155341542 -7.009944556999668 2.499421577429152
H -10.04387759605385 -6.682486199741747 1.6282087126122597
H -9.56838381064684 -7.560363892882167 2.7835319005236614
O -12.602954319687615 -16.46807451764576 -8.23162047111289
H -12.484816183480286 -17.427387986387146 -8.16285706249445
H -11.712236195868199 -16.135347958160903 -8.41837219081845
O -5.110825870794656 10.089982476317616 -13.075250311026448
H -4.591511725394782 9.272920145147296 -13.116351676820354
H -5.624893056861508 10.082149186212654 -13.896612297044452
O 5.003063754534605 2.8981807405041558 -22.03227631483889
H 5.0184361571761285 2.277440680226216 -22.776193530463836
H 5.927628210737575 3.1721158367458395 -21.936871526315663
O -8.82970408745953 11.87965996113897 -5.860883018134431
H -8.94068229786472 11.642702209534509 -4.927875934736979
H -9.115190902189644 11.08682406866908 -6.339287105205939
O -8.939944929012189 8.989891718110373 10.833007417742202
H -8.759746260869598 9.05552092737182 9.883171324623316
H -9.522979532474624 9.7425989200662 11.013186394288383
O 13.371045327887817 11.227135808282181 3.7898953193901184
H 13.13516106249719 11.399166244085402 4.713871238664253
H 13.523284783186336 10.270593823365568 3.7613905190541432
O 3.1932930081530717 -3.880367623662768 5.547286876118354
H 3.527180467212818 -3.310918681532664 6.256662956832618
H 2.424163345579528 -4.318636479322663 5.941395892264993
O 10.919905017513182 -11.066571206430924 -6.618326144738473
H 10.892003199640747 -11.234450446353616 -7.572268179802657
H 10.49285282639659 -10.202305270150262 -6.520179510830693
O -2.9091702703347213 4.015686361143942 5.481158290340425
H -3.756140316316208 3.8825004899947473 5.932678635215769
H -3.0850488394884357 3.7423347602295527 4.568301469426006
O -16.06324192321721 0.6597838173921353 -7.434382896189104
H -16.65733955635969 0.7493988558146687 -8.194635817316692
H -15.812004991394343 -0.2760435337865439 -7.4426965701139665
O 15.208524273894323 11.122209012053643 -1.6618827433178618
H 15.451618581596556 11.154613129313748 -2.5993380689987005
H 15.723854816631317 10.37994234173777 -1.311973374822839
O -14.708790101314715 13.020488171654279 -4.754010203037893
H -14.72209579317607 12.377925656378462 -4.028818001324094
H -13.77264241894838 13.079756939109387 -4.997067139380986
O -12.50025141217745 9.089306990906254 -10.576623179165592
H -11.950991129334072 9.375795665813275 -9.831502559573813
H -13.092901853581786 8.427489669079103 -10.189679732221748
O -15.609925841955476 7.315178822397516 0.9839743331553827
H -16.032580486961795 8.16202514117443 1.1917764513557776
H -14.946508427761405 7.207191649812403 1.6819557436536303
O 2.0831569587644942 3.939515172440811 14.214864594544597
H 2.043265950835511 3.884838660939518 15.181501311970774
H 1.4709372710825408 4.657897601113782 13.995602914152116
O -10.80381887617239 3.075240243384698 -19.33770427480055
H -9.94223810105375 3.3615812836220345 -18.99909722596405
H -10.677157863191592 2.134959904381944 -19.534660656204014
O 17.009213864305504 -1.001649665749322 1.660556076158259
H 16.75058010011133 -1.216618688348336 0.7517853392605662
H 16.366145193656163 -0.3304986864526662 1.9343826492267384
O 1.874845333761342 1.6733493278045688 -6.835805864582008
H 1.50831929870105 1.4090043586897403 -5.978631576687963
H 1.2428092439209284 2.3280549623432485 -7.168751592205211