194

C -5.0710522388059704 1.0783507462686561 0.47044029850746183
C -3.8153522388059704 0.1782507462686569 0.19534029850746193
C -4.11845223880597 -1.3219492537313435 0.5608402985074619
C -2.96945223880597 -2.3874492537313436 0.7034402985074619
C -2.52015223880597 0.7359507462686565 0.7384402985074618
C -2.20305223880597 0.7852507462686571 2.097440298507462
C -1.5755522388059702 1.205650746268656 -0.18965970149253808
C -0.9533522388059701 1.2695507462686564 2.508640298507462
H -2.91125223880597 0.4298507462686567 2.840840298507462
C -0.32655223880597006 1.6562507462686575 0.21554029850746192
H -1.7850522388059702 1.178550746268657 -1.2573597014925382
C 0.004447761194029898 1.6956507462686563 1.569740298507462
H -0.7158522388059702 1.2676507462686573 3.5705402985074617
H 0.3943477611940298 1.9193507462686572 -0.5551597014925382
C -1.76045223880597 -2.1592492537313435 -0.1734597014925381
C -0.5287522388059701 -1.936549253731343 0.464840298507462
C -1.8068522388059702 -2.121249253731343 -1.5681597014925381
C 0.6114477611940299 -1.614449253731343 -0.2582597014925381
H -0.4544522388059702 -1.954049253731343 1.5506402985074619
C -0.6479522388059701 -1.8270492537313432 -2.2998597014925384
H -2.74345223880597 -2.290549253731343 -2.092259701492538
C 0.5698477611940298 -1.5506492537313434 -1.6506597014925382
H 1.5072477611940298 -1.351949253731343 0.2991402985074618
H -0.7173522388059701 -1.7640492537313435 -3.3840597014925375
C 1.7791477611940298 -1.082849253731343 -2.4255597014925376
H 1.4739477611940297 -0.9102492537313429 -3.464259701492538
H 2.1252477611940295 -0.1337492537313434 -2.0010597014925384
C 1.3965477611940298 2.0964507462686566 1.997440298507462
H 1.51704776119403 1.8448507462686567 3.057640298507462
H 2.1256477611940294 1.5207507462686571 1.4165402985074618
C 3.94864776119403 -1.4275492537313434 -3.522959701492538
H 4.81734776119403 -2.087049253731343 -3.615159701492538
H 3.4305477611940303 -1.3641492537313429 -4.484459701492538
H 4.26984776119403 -0.441449253731343 -3.176459701492538
C 2.60904776119403 -3.4296492537313434 -2.8992597014925376
H 1.9825477611940296 -3.869549253731343 -2.119359701492538
H 2.06294776119403 -3.373349253731343 -3.845759701492538
H 3.5215477611940305 -4.019849253731343 -3.0234597014925377
C 3.7281477611940304 -2.060049253731343 -1.156659701492538
H 3.9048477611940298 -1.032549253731343 -0.8295597014925382
H 3.12924776119403 -2.623249253731343 -0.4404597014925382
H 4.68244776119403 -2.5769492537313434 -1.3005597014925383
C 3.1110477611940297 3.755250746268656 2.588740298507462
H 3.40124776119403 4.809350746268656 2.534540298507462
H 2.9823477611940303 3.461750746268656 3.634840298507462
H 3.86514776119403 3.1392507462686563 2.091540298507462
C 1.99744776119403 3.9574507462686572 0.40494029850746194
H 2.67914776119403 3.230350746268657 -0.04295970149253803
H 1.03214776119403 3.981150746268657 -0.10175970149253821
H 2.4399477611940297 4.958250746268657 0.368240298507462
C 0.7418477611940297 4.4992507462686575 2.475440298507462
H -0.18475223880597014 4.424250746268656 1.901240298507462
H 0.57844776119403 4.189650746268656 3.511940298507462
H 1.1210477611940297 5.524350746268658 2.4432402985074617
N 3.00114776119403 -2.025349253731343 -2.490159701492538
N 1.7831477611940298 3.586450746268657 1.862540298507462
C -3.55075223880597 -3.8435492537313434 0.6444402985074619
H -2.62515223880597 -2.2736492537313433 1.7424402985074618
H -4.67195223880597 -1.3478492537313436 1.5102402985074619
H -4.83415223880597 -1.6757492537313432 -0.1945597014925382
H -3.7169522388059697 0.17335074626865676 -0.900559701492538
H -3.9132522388059705 -4.043149253731343 -0.34225970149253815
H -4.35435223880597 -3.9354492537313432 1.3449402985074619
H -2.78115223880597 -4.545049253731343 0.8904402985074619
H -5.24235223880597 1.138950746268657 1.5249402985074618
H -5.92805223880597 0.6501507462686567 -0.006059701492538094
H -4.89895223880597 2.059650746268657 0.08004029850746197
C 2.04929036095745 -2.2946052513260593 3.0948332644514154
O 2.020926477585992 -3.360503248589657 2.499155123044883
O 3.0268066729242302 -1.8441977129823333 3.7032955667693246
O 1.104853846817794 -1.5013842099204378 3.181369006379919
O -0.7999270880979861 -6.646472430442651 5.804429834336641
H 0.018325614427447956 -7.066915189781104 6.1088272026394765
H -1.3755779352666595 -7.392026298935632 5.576971100432798
O -4.001022890151342 6.333315035495719 -6.68420137166438
H -4.1167090510573345 6.211872848268978 -5.729824158903923
H -4.750463221399894 6.89097074261158 -6.941730489472772
O -1.6786721705997287 -0.4624915641953725 8.307407103303245
H -1.7485039068192216 -0.4069488726053603 7.342520635926119
H -2.185182552132042 0.30090154604179475 8.623065363043764
O 1.368493794618701 2.1217384495198894 -9.981986550910769
H 2.0525847252892544 2.776536126593407 -10.187478539984369
H 1.8306764888880394 1.4612452701856076 -9.444308337226389
O -7.634179847597531 -2.067608601537634 0.09351047371518431
H -7.670334034612458 -1.9524468299260243 -0.8679457125047422
H -8.26200434195917 -1.4114899210368024 0.43160310255734075
O 5.2255513113358845 6.4640211665882745 6.010707279553077
H 5.325565355431905 6.064536735080306 6.88784850926829
H 4.601379183416894 5.878275113697962 5.556534778676486
O -5.046168109879042 -6.456055138376945 5.0384512442205445
H -5.320210241889267 -6.135507595839795 4.166030737952675
H -5.4453760357683265 -5.824773346159013 5.655766621496448
O 7.815580199598742 -1.0866164858251994 -2.332498425798132
H 6.903398846936844 -0.8611957478955334 -2.569306423271101
H 8.334334269054496 -0.7982161413619315 -3.098449730409961
O -0.3406029671386044 -4.990949310199217 8.274188343987351
H -0.6935928712718837 -4.578197991100061 9.076685591996268
H 0.6203533651594801 -4.936775245311483 8.386393702191636
O -3.4334642263387236 2.379656315587087 8.982013362425107
H -3.126203283232896 2.889530041015788 8.21743056516952
H -3.325673744829801 2.9885816197655903 9.7280382482883
O -2.6436479737257264 10.260085091796153 1.2251438487361233
H -2.9409657900982786 10.688454436708717 0.40840081858120447
H -2.30047539667307 9.40372476122814 0.9287631629813284
O 4.962743593714533 2.3316653646469336 -3.818661737702842
H 4.920704020329118 1.5552193234788878 -3.240447610995406
H 4.770185141438411 3.0746611681851803 -3.227188642218712
O -7.36584899802706 6.902282600656706 -0.6795990893509005
H -7.594947318265939 6.239320138110681 -0.01104685517720827
H -6.552921737453581 7.305829906993211 -0.3400983016271464
O -0.06950051897266274 -10.151291682046285 -5.190981122471762
H 0.26685479444991245 -10.48534180248162 -6.036110093144016
H -1.0097882363553339 -10.38504268735759 -5.204450359838542
O -3.4989555226635334 2.777951648446565 5.2274716360741555
H -4.026656370556569 1.968338638187161 5.298365540266811
H -3.1568117022829663 2.9135740072737533 6.123856668446706
O 0.5967379645634046 1.9631759945229899 10.894008229273947
H 1.2200451258480065 2.4116582112316705 11.485040581085082
H 0.6359720502191188 1.0358940457894086 11.17252361192922
O -6.935471380805652 -4.387142408065287 -5.21450697899862
H -6.896763866084974 -4.407733554841385 -4.246496085527584
H -6.150916063281772 -4.884258157311173 -5.49075112807097
O 6.571733367267744 -1.013973508103923 9.168816886111733
H 6.744409359306509 -0.943282627222136 8.217947201016248
H 7.353486052898408 -0.6145066815468376 9.57900091467654
O 5.152632897681331 0.501653561578429 5.362758252603371
H 5.129158536569157 1.3323990039393387 5.861033599441796
H 5.523432860391056 -0.13710634410600786 5.990018258378068
O -2.278332523551106 -8.143092382166031 0.14520853148687896
H -1.7580695819157992 -8.813325142238245 0.6132703605083905
H -1.6200589643940009 -7.489776178767727 -0.13553299374916583
C -11.281391479031615 11.301429819576354 11.269777740932748
O -11.599429254351836 11.341142913084727 12.423074364084552
O -10.963353703711393 11.261716726067982 10.116481117780943
O 5.953236085477109 6.219394519379243 -12.17204077957074
H 5.845905130634842 7.144113510455657 -11.903075706419468
H 5.213016271105257 6.064421379904205 -12.777862450322578
O 10.339600061718606 10.810507422452986 -9.740912926899714
H 10.939889211034124 10.254839090567062 -10.260386698184817
H 10.124956927783 11.543862661798572 -10.336799126000411
O 4.896521956531541 17.183423120103672 10.911561487156739
H 4.481535031361331 17.909248286600622 11.40138904509673
H 5.649210441689406 17.601381980308425 10.466890395464123
O -9.203046120158744 -13.336301661057583 -3.221134106514079
H -9.938175034065566 -13.33965489643429 -3.8524356134429687
H -8.793820352772602 -12.466451247388445 -3.3430212405637776
O -18.071052519545823 4.716867684155203 4.297108900485675
H -18.515330884661374 4.974088563304009 5.118949219842284
H -17.309947805171237 4.196588343629357 4.595422436683357
O 11.655195525086885 11.428951883771182 1.4185042334852558
H 11.948604238042046 11.689074252404817 0.5323806318368034
H 11.697649382759975 10.460985121968106 1.4043634303561074
O 10.00651227000914 -4.412806768819059 -9.683379580215387
H 10.057417421596286 -4.382498670710528 -10.650570069018361
H 10.796247536147481 -3.9326647448603547 -9.392271712670992
O -12.642059789238917 4.934987628465739 -1.2308098453903094
H -12.983850555649529 4.785840449564405 -2.1251819983122457
H -12.290033797564636 5.83723683052503 -1.2622108464749011
O 9.149875539533651 2.4422467571719833 -8.941524471332494
H 9.723942640193812 2.445863828947396 -9.722166026485311
H 8.489208598209043 1.761735910249321 -9.139983847934825
O 9.006135997049803 -4.680947692970047 3.992141603404526
H 8.395105004983154 -4.4962413164967 4.721176608136217
H 9.02474545386438 -3.854140486358675 3.4871609349502126
O 0.35065540494514247 -6.758387112230534 -1.7129339094654967
H 0.4509615629845034 -7.67837760797055 -1.4256648381970702
H -0.008215833707109876 -6.831125015559729 -2.610086391370033
O 11.582147713658372 8.55139197293228 -0.39675493810657086
H 11.834736559656097 8.523091891022265 -1.3318299816947445
H 11.069035879221685 7.739504330634535 -0.2682378343996062
O 5.56934932220006 -12.004421530151406 -16.410863373704373
H 5.645177203018349 -11.9287664640423 -15.44779857818818
H 4.778581759205297 -11.486835073724093 -16.624762568977143
O -12.297630029817455 -4.163324050496788 -9.849227718469336
H -12.196122413093548 -4.700113477461022 -10.649553072151477
H -11.390506068891767 -3.9115806875014503 -9.619633853128192
O -1.7634439677822105 -2.1753777983467453 17.28487937351402
H -1.51479819505129 -2.353231232830181 16.36536276548266
H -2.6721344448352164 -1.8448111693909186 17.221877270105026
O -5.526238202297224 11.534758223020095 -10.219230346977483
H -5.939654337530914 10.668625206537431 -10.085558907293908
H -5.818775239551976 12.054148056354776 -9.455281247126726
O 15.089326028530063 -1.4369320001966717 0.9236257800179168
H 15.271316583186833 -1.6360590085357187 -0.0070703193967436295
H 15.718542962391346 -0.7323772199836163 1.1396131780788643
O -7.700853589569079 -10.844473510591225 -10.57446167676716
H -7.61251234236979 -10.893164953780364 -9.610722954756142
H -6.807223606211094 -10.628752256995165 -10.880813986845853
O -5.1056920059327275 -0.37617577601092567 -13.652892211642985
H -4.833600534116216 -0.4272508836491844 -14.581506728676004
H -4.889543399117475 0.5326095420402495 -13.395305391781315
O 8.14459152103947 10.185489686796878 4.548865090570488
H 8.134532479841837 9.910128076062083 3.6198644684373664
H 8.698766800767885 9.520371647565813 4.984146261226141