194

C -5.0710522388059704 1.0783507462686561 0.47044029850746183
C -3.8153522388059704 0.1782507462686569 0.19534029850746193
C -4.11845223880597 -1.3219492537313435 0.5608402985074619
C -2.96945223880597 -2.3874492537313436 0.7034402985074619
C -2.52015223880597 0.7359507462686565 0.7384402985074618
C -2.20305223880597 0.7852507462686571 2.097440298507462
C -1.5755522388059702 1.205650746268656 -0.18965970149253808
C -0.9533522388059701 1.2695507462686564 2.508640298507462
H -2.91125223880597 0.4298507462686567 2.840840298507462
C -0.32655223880597006 1.6562507462686575 0.21554029850746192
H -1.7850522388059702 1.178550746268657 -1.2573597014925382
C 0.004447761194029898 1.6956507462686563 1.569740298507462
H -0.7158522388059702 1.2676507462686573 3.5705402985074617
H 0.3943477611940298 1.9193507462686572 -0.5551597014925382
C -1.76045223880597 -2.1592492537313435 -0.1734597014925381
C -0.5287522388059701 -1.936549253731343 0.464840298507462
C -1.8068522388059702 -2.121249253731343 -1.5681597014925381
C 0.6114477611940299 -1.614449253731343 -0.2582597014925381
H -0.4544522388059702 -1.954049253731343 1.5506402985074619
C -0.6479522388059701 -1.8270492537313432 -2.2998597014925384
H -2.74345223880597 -2.290549253731343 -2.092259701492538
C 0.5698477611940298 -1.5506492537313434 -1.6506597014925382
H 1.5072477611940298 -1.351949253731343 0.2991402985074618
H -0.7173522388059701 -1.7640492537313435 -3.3840597014925375
C 1.7791477611940298 -1.082849253731343 -2.4255597014925376
H 1.4739477611940297 -0.9102492537313429 -3.464259701492538
H 2.1252477611940295 -0.1337492537313434 -2.0010597014925384
C 1.3965477611940298 2.0964507462686566 1.997440298507462
H 1.51704776119403 1.8448507462686567 3.057640298507462
H 2.1256477611940294 1.5207507462686571 1.4165402985074618
C 3.94864776119403 -1.4275492537313434 -3.522959701492538
H 4.81734776119403 -2.087049253731343 -3.615159701492538
H 3.4305477611940303 -1.3641492537313429 -4.484459701492538
H 4.26984776119403 -0.441449253731343 -3.176459701492538
C 2.60904776119403 -3.4296492537313434 -2.8992597014925376
H 1.9825477611940296 -3.869549253731343 -2.119359701492538
H 2.06294776119403 -3.373349253731343 -3.845759701492538
H 3.5215477611940305 -4.019849253731343 -3.0234597014925377
C 3.7281477611940304 -2.060049253731343 -1.156659701492538
H 3.9048477611940298 -1.032549253731343 -0.8295597014925382
H 3.12924776119403 -2.623249253731343 -0.4404597014925382
H 4.68244776119403 -2.5769492537313434 -1.3005597014925383
C 3.1110477611940297 3.755250746268656 2.588740298507462
H 3.40124776119403 4.809350746268656 2.534540298507462
H 2.9823477611940303 3.461750746268656 3.634840298507462
H 3.86514776119403 3.1392507462686563 2.091540298507462
C 1.99744776119403 3.9574507462686572 0.40494029850746194
H 2.67914776119403 3.230350746268657 -0.04295970149253803
H 1.03214776119403 3.981150746268657 -0.10175970149253821
H 2.4399477611940297 4.958250746268657 0.368240298507462
C 0.7418477611940297 4.4992507462686575 2.475440298507462
H -0.18475223880597014 4.424250746268656 1.901240298507462
H 0.57844776119403 4.189650746268656 3.511940298507462
H 1.1210477611940297 5.524350746268658 2.4432402985074617
N 3.00114776119403 -2.025349253731343 -2.490159701492538
N 1.7831477611940298 3.586450746268657 1.862540298507462
C -3.55075223880597 -3.8435492537313434 0.6444402985074619
H -2.62515223880597 -2.2736492537313433 1.7424402985074618
H -4.67195223880597 -1.3478492537313436 1.5102402985074619
H -4.83415223880597 -1.6757492537313432 -0.1945597014925382
H -3.7169522388059697 0.17335074626865676 -0.900559701492538
H -3.9132522388059705 -4.043149253731343 -0.34225970149253815
H -4.35435223880597 -3.9354492537313432 1.3449402985074619
H -2.78115223880597 -4.545049253731343 0.8904402985074619
H -5.24235223880597 1.138950746268657 1.5249402985074618
H -5.92805223880597 0.6501507462686567 -0.006059701492538094
H -4.89895223880597 2.059650746268657 0.08004029850746197
C 1.0179898051078764 2.6323449354472888 -3.800599173183445
O 1.6461065210732166 2.770757547183005 -4.8389087795328285
O 1.0080848718584399 3.4362156446099856 -2.861277482095888
O 0.2950406338899114 1.6669702340383092 -3.5284878611900248
O 8.626656298566703 5.767822205364556 -0.5975000114483333
H 8.355034848236247 5.756721842055725 0.3325891920987203
H 8.476888115823375 6.684335141556032 -0.8741504651465755
O -2.8703413962041093 -2.0326675446498275 11.31358981073096
H -3.558372371426069 -1.4527647037064506 10.95401585574962
H -3.0700983668822763 -2.899309786679241 10.928894709000106
O 8.963512623821789 -1.7262142407813252 6.832530325886277
H 9.917570837449025 -1.644033444501074 6.684251539024673
H 8.708029235806888 -2.4906262132637207 6.294604197989519
O 5.779974609458643 -3.134518500956906 1.4381928815299398
H 6.647515053529127 -2.8144390522971356 1.7278307266877222
H 5.422382859452947 -2.4010227719450423 0.9156279571911385
O 0.5343063560425834 -9.51258563230799 -5.241264744557798
H 0.21447247577489614 -8.70306561637517 -5.667117993620245
H 0.7611040116295142 -10.093362624985366 -5.9830348251736805
O -0.5787409548826892 -7.786625636435106 7.683890827902934
H 0.031546483240414425 -8.379857622665714 8.147132028879298
H -1.395886690861838 -8.302234604660766 7.610527469498585
O 9.108458943548623 -4.684487311209731 -3.054310471249098
H 9.169765330857565 -4.427981935484244 -3.986734128177135
H 8.240653089376757 -4.354160104021647 -2.7772565415596677
O -4.381359808247327 -2.868090740649754 5.486462116037851
H -3.745825484409987 -2.530585172375581 6.135425498293386
H -5.054343962597718 -2.172856514517795 5.434465547805108
O -7.939550516519367 4.636078705562702 -8.257357727996867
H -7.918824476593564 4.599181005166805 -7.289279039111252
H -7.506735015110855 3.81384400165934 -8.532244573330445
O 6.048474744821451 -1.3563693050650372 -7.171378323087243
H 6.615399603802094 -1.9679506923805001 -6.677888943405093
H 5.358147668753531 -1.9256070763873296 -7.5433713768497395
O -0.11389928798756466 -3.3153889206208493 -8.341481167866107
H 0.03912919258017289 -3.513196625844884 -7.40530717079658
H 0.39757492684612944 -2.5071170996333993 -8.496570610633459
O -1.6488089244865793 4.850864608382743 4.503347625006415
H -1.9720210215263876 5.752801802833293 4.648297942335507
H -2.44834233256863 4.347467844919375 4.288173341702612
O -1.7202421761465154 -6.673596981055013 -3.6629789798065384
H -2.4057020113971177 -6.116136033733636 -4.060910460553882
H -2.2099306115225206 -7.250547113600796 -3.05775528139875
O -2.363590030425959 5.939049455608387 0.9399495812115866
H -3.0845014288053467 6.464310162822188 0.5613266790464697
H -1.976771962886734 5.486886885872189 0.1751733149383865
O 2.3073055184383104 -8.01683189141195 -0.03557835581061797
H 3.0620719720930873 -8.122276561296388 -0.6340567421625014
H 2.694755745653625 -7.62979735048251 0.7638267541670067
O 0.19130499631333875 1.564370486439445 6.867023532520273
H 0.40880142982263645 2.240763191020756 7.525928356830974
H -0.7677745891910825 1.646124404195887 6.755468210369606
O 5.73482153674893 5.098134327513717 -5.890443090598365
H 5.410075246666043 4.880669722096156 -6.777131507894985
H 5.122566847013559 4.63727011189858 -5.29739139473831
O 5.718635209755534 -5.7018466401059085 -0.12832659026230653
H 6.512531909754043 -5.151698443991172 -0.20599478802163107
H 5.050111156440116 -5.221559047763322 -0.6395617250882348
O -1.23331931268845 1.8211407380327087 -8.717938672752396
H -0.5881156277470021 1.758491121998011 -7.997692473561672
H -1.80043889182903 1.0455479836429151 -8.592267647478213
O 0.2491572607216468 7.546162904333585 4.179317834766881
H 0.39853724643038735 6.606067854475142 4.360630476359545
H -0.21265991847536858 7.549740023377006 3.3274527976172985
C -14.07895396250204 -12.061514081787761 -1.517541886269926
O -14.035839455286398 -11.1941247079367 -0.6937730651205603
O -14.12206846971768 -12.928903455638823 -2.3413107074192907
O 1.239860326090841 10.424955139584323 1.8219773670616055
H 0.9519869346406417 10.933445639560063 2.5949803934653737
H 1.7994246074704439 9.72766032138469 2.1956479383086154
O -4.010625131143469 -12.611778917542013 15.859287186875527
H -3.598489171160531 -11.737295045354491 15.925538712690855
H -3.885202869129957 -12.859920373925618 14.931032362963883
O 7.8280955199543465 17.73848639439868 12.930012597938491
H 7.869211298943595 16.980431494061804 13.532199958892997
H 8.583267480973394 17.60762999617034 12.337092825428456
O 13.676945287035696 2.379557222079958 -11.434628103218907
H 13.375418792312198 2.1855155106413813 -12.334848600709245
H 13.622714823151743 3.345050701895996 -11.372633413771766
O 0.3110810736371672 13.807922621772295 -6.5646035361437765
H 0.7797134154834833 13.594658493570634 -7.385499081690236
H -0.6062702589969398 13.553926085785164 -6.7460263476118065
O 7.3472107986636015 5.03167645935045 21.001115612550933
H 7.184972258988892 5.5585195159611605 20.204195035049445
H 6.540571658487079 4.504153020448051 21.10118690335835
O -10.051645098350788 4.19979064676839 -0.4599574147988703
H -10.418412123536209 3.6929219787014826 0.2799976240168115
H -10.831554158279488 4.472365596063762 -0.9663235862180891
O -9.205625245893685 -4.596661412617943 -5.307379061887181
H -8.37102945595172 -5.057603820483928 -5.134320340807153
H -9.0563175961406 -3.704160407100562 -4.960808542114261
O 17.253625379609907 0.8689764941552092 2.330943141591206
H 17.59566930405831 -0.028445354446913207 2.202073687105341
H 16.300456431147424 0.7799552299072108 2.180922761313676
O -13.522337968367554 3.5964635853159233 -9.271310786437894
H -12.782212551920912 3.5741296195116132 -8.646264453114402
H -13.177036064892178 3.1500551127473013 -10.058996012511882
O 3.156111235384486 8.240363968313304 -14.815960145158153
H 2.9812231616367164 9.02605888059697 -15.355464569025425
H 2.404353022169268 8.203427377371339 -14.205667410961643
O 0.12735793105931625 -9.827573055176035 -2.9754034940747225
H -0.6728744380214671 -10.113789370037255 -2.5099190867283325
H 0.5150418056334494 -9.162312831571995 -2.3871076564339218
O 10.959487346059419 -8.667230437015494 -7.0977389695508055
H 11.785291832202704 -8.519579817232739 -6.612750720163881
H 11.246814251468614 -9.063741949954133 -7.933911089293558
O -6.125773250119927 6.970400652186232 9.072185421354
H -5.866064573494566 6.569574935755837 9.915309080868761
H -6.816065930673915 7.60470663455528 9.317366742429702
O 9.807602752216596 -0.4702202166514069 -3.705237646792739
H 9.767120371781532 -0.9620806535486777 -2.8713300713447527
H 9.366754665308507 -1.0525125491578669 -4.342066154378307
O -0.051756020912653966 0.14338958256910678 23.325853444019746
H 0.255097731221106 0.9702025960313964 23.727336161544223
H -0.46062936260720555 -0.3364953487795757 24.061716873887
O -8.114110924013374 18.05698593488198 7.808705890025941
H -8.987520153311275 18.42742211112126 8.005938530353209
H -7.847283827269567 17.632384187490775 8.637849183344779
O -20.573323573077182 -5.514539625060329 2.690583833374693
H -20.25610371215392 -4.643710029193423 2.407750434183387
H -21.481088292101454 -5.553678264995166 2.3538445780764228
O 17.144540394919478 -0.37047905242116386 7.422551991644731
H 17.26704081440991 -0.7410487223478928 8.309478777718455
H 17.363426807637552 0.5675104694880417 7.528506413052966
O 8.184439467691277 -14.347524864912852 9.558572365528713
H 7.233264934725469 -14.425852520498257 9.726200355756406
H 8.329322957863354 -14.894626557755455 8.772029006098153