194

C -5.0710522388059704 1.0783507462686561 0.47044029850746183
C -3.8153522388059704 0.1782507462686569 0.19534029850746193
C -4.11845223880597 -1.3219492537313435 0.5608402985074619
C -2.96945223880597 -2.3874492537313436 0.7034402985074619
C -2.52015223880597 0.7359507462686565 0.7384402985074618
C -2.20305223880597 0.7852507462686571 2.097440298507462
C -1.5755522388059702 1.205650746268656 -0.18965970149253808
C -0.9533522388059701 1.2695507462686564 2.508640298507462
H -2.91125223880597 0.4298507462686567 2.840840298507462
C -0.32655223880597006 1.6562507462686575 0.21554029850746192
H -1.7850522388059702 1.178550746268657 -1.2573597014925382
C 0.004447761194029898 1.6956507462686563 1.569740298507462
H -0.7158522388059702 1.2676507462686573 3.5705402985074617
H 0.3943477611940298 1.9193507462686572 -0.5551597014925382
C -1.76045223880597 -2.1592492537313435 -0.1734597014925381
C -0.5287522388059701 -1.936549253731343 0.464840298507462
C -1.8068522388059702 -2.121249253731343 -1.5681597014925381
C 0.6114477611940299 -1.614449253731343 -0.2582597014925381
H -0.4544522388059702 -1.954049253731343 1.5506402985074619
C -0.6479522388059701 -1.8270492537313432 -2.2998597014925384
H -2.74345223880597 -2.290549253731343 -2.092259701492538
C 0.5698477611940298 -1.5506492537313434 -1.6506597014925382
H 1.5072477611940298 -1.351949253731343 0.2991402985074618
H -0.7173522388059701 -1.7640492537313435 -3.3840597014925375
C 1.7791477611940298 -1.082849253731343 -2.4255597014925376
H 1.4739477611940297 -0.9102492537313429 -3.464259701492538
H 2.1252477611940295 -0.1337492537313434 -2.0010597014925384
C 1.3965477611940298 2.0964507462686566 1.997440298507462
H 1.51704776119403 1.8448507462686567 3.057640298507462
H 2.1256477611940294 1.5207507462686571 1.4165402985074618
C 3.94864776119403 -1.4275492537313434 -3.522959701492538
H 4.81734776119403 -2.087049253731343 -3.615159701492538
H 3.4305477611940303 -1.3641492537313429 -4.484459701492538
H 4.26984776119403 -0.441449253731343 -3.176459701492538
C 2.60904776119403 -3.4296492537313434 -2.8992597014925376
H 1.9825477611940296 -3.869549253731343 -2.119359701492538
H 2.06294776119403 -3.373349253731343 -3.845759701492538
H 3.5215477611940305 -4.019849253731343 -3.0234597014925377
C 3.7281477611940304 -2.060049253731343 -1.156659701492538
H 3.9048477611940298 -1.032549253731343 -0.8295597014925382
H 3.12924776119403 -2.623249253731343 -0.4404597014925382
H 4.68244776119403 -2.5769492537313434 -1.3005597014925383
C 3.1110477611940297 3.755250746268656 2.588740298507462
H 3.40124776119403 4.809350746268656 2.534540298507462
H 2.9823477611940303 3.461750746268656 3.634840298507462
H 3.86514776119403 3.1392507462686563 2.091540298507462
C 1.99744776119403 3.9574507462686572 0.40494029850746194
H 2.67914776119403 3.230350746268657 -0.04295970149253803
H 1.03214776119403 3.981150746268657 -0.10175970149253821
H 2.4399477611940297 4.958250746268657 0.368240298507462
C 0.7418477611940297 4.4992507462686575 2.475440298507462
H -0.18475223880597014 4.424250746268656 1.901240298507462
H 0.57844776119403 4.189650746268656 3.511940298507462
H 1.1210477611940297 5.524350746268658 2.4432402985074617
N 3.00114776119403 -2.025349253731343 -2.490159701492538
N 1.7831477611940298 3.586450746268657 1.862540298507462
C -3.55075223880597 -3.8435492537313434 0.6444402985074619
H -2.62515223880597 -2.2736492537313433 1.7424402985074618
H -4.67195223880597 -1.3478492537313436 1.5102402985074619
H -4.83415223880597 -1.6757492537313432 -0.1945597014925382
H -3.7169522388059697 0.17335074626865676 -0.900559701492538
H -3.9132522388059705 -4.043149253731343 -0.34225970149253815
H -4.35435223880597 -3.9354492537313432 1.3449402985074619
H -2.78115223880597 -4.545049253731343 0.8904402985074619
H -5.24235223880597 1.138950746268657 1.5249402985074618
H -5.92805223880597 0.6501507462686567 -0.006059701492538094
H -4.89895223880597 2.059650746268657 0.08004029850746197
C -1.5986277554456494 3.293288357084016 -2.317276046200564
O -1.4843122232515606 3.378122670525892 -1.1042176811735436
O -1.1365604948151522 4.097823148494941 -3.134496383785728
O -2.1940789789171657 2.3897619638967433 -2.9153782796692846
O 5.0488985389676575 -3.543236389174086 4.166125808264471
H 5.339979812072138 -3.687577296672507 5.079035854090679
H 5.351791131778686 -4.334559620536744 3.695992247426732
O -2.5226910717825604 -6.994701168551031 -0.6136368108774489
H -2.54622759425821 -6.190430139746017 -1.153601162695863
H -2.7837437153607065 -6.691764014552705 0.2689970556313406
O -4.017828818297635 -2.4906458133998797 5.928489956896989
H -4.57518522700912 -2.3262362696997623 6.703919316999221
H -3.4070876636735266 -1.738456637885769 5.915504172830836
O 1.445166805433313 3.3143780556846294 -9.96064702509067
H 2.0044500480863734 3.5164050155638673 -9.195562246213564
H 1.6707703820613555 2.3978907677748333 -10.180000670176362
O -2.5084690618393974 5.986033831271919 7.036768203750003
H -2.6288386629336644 6.227167236406786 6.1059979866929295
H -2.124019991126814 6.780591162143088 7.436567533773346
O 7.015436138775868 -7.286221756160437 6.977170853537719
H 7.199562724219574 -6.511639390484229 6.424824118038819
H 6.355240927104685 -6.969518052795282 7.611838476046724
O -3.2749069523005305 8.750354759360949 0.9410495146806266
H -2.8099495833412926 8.055527855497239 1.4309449888561678
H -2.681432001512319 8.95309309819107 0.2023705634065749
O 10.257288637790491 -7.329417338780891 -4.0881555855515765
H 11.017066464954771 -6.991579906787964 -4.585720535878614
H 10.352922842871585 -6.925952520639651 -3.212351849751848
O -2.644300321827696 -7.031352366239707 8.087652596792326
H -2.6660772674876156 -7.042958576840725 7.118963576820896
H -2.4061356526314954 -7.939538520961635 8.327313697136251
O -3.344228100482148 -8.311199956358365 3.063639205370859
H -3.316618237861607 -8.25691694122439 2.096551615411169
H -3.3790226725710513 -7.385857197148994 3.3491073472570205
O 4.311155907079005 2.363298208461216 6.81285900382893
H 4.982317733030743 2.077461499461148 7.450672876422761
H 3.476225012761429 2.0598410232442497 7.199855234759216
O 4.7556769486182855 -3.0756710891606174 -8.491377328109184
H 4.1748893541067345 -2.3322284964817306 -8.27013936040838
H 5.636891065518843 -2.6762773792320296 -8.545305882184433
O 1.5037753242293066 9.947487866243037 6.050448171430306
H 1.1645344755881446 10.181526936347803 6.927436607601344
H 0.9991158364963013 9.156709883527023 5.8076500499535335
O -10.01928485209075 2.204916486557959 -3.3705913165616543
H -9.786537829500684 2.3705258142719363 -2.4446486990363647
H -9.779620868677416 3.0276641603984737 -3.8229290051798754
O 2.398098734578468 3.644112730638052 -4.730801519361451
H 2.5399132928070762 3.8991454207943175 -5.654822252313956
H 1.8223797514491005 4.340843543635755 -4.381408086417945
O 5.054953118076501 0.7683555305124268 4.621596791451782
H 5.594271270252834 0.9042571793623316 5.41509161151867
H 4.180885742199263 0.5362722488393814 4.969598971179076
O 0.4814547711707875 -10.355398750660681 -3.299502412199434
H 1.268748135018091 -9.790541449077171 -3.2909733448532257
H -0.24886042690748367 -9.741577769780594 -3.1297217914345694
O -6.284878411278365 -0.7405275874029225 -3.4528211264201687
H -5.7430431968485385 0.062229561965546853 -3.4838520213733335
H -7.192012683458344 -0.4079197347089565 -3.3790554646064987
O 10.960106854244215 -2.781905982164006 1.4583855228505949
H 10.81913480022396 -2.7040021817290025 2.413909062468062
H 10.520044713312265 -3.612746296502529 1.223839944149454
O -7.948655360000708 -1.3471630620650834 -0.7108500560014162
H -7.016380528839579 -1.6049367316169192 -0.7690199053158979
H -8.189736888188149 -1.5461897225286056 0.20633587361784378
C 8.375599494769101 16.27072772698626 12.37387378057107
O 8.48882310251126 16.550836493554005 13.532121487601712
O 8.262375887026941 15.990618960418509 11.215626073540427
O -1.3848432114641247 1.4390382209393464 6.59647302945409
H -1.3937986489551508 1.5195186883996932 7.562086850500947
H -0.47526707725165085 1.1747522662850853 6.392056458346031
O 4.872576102156869 -11.112966339863105 -11.553498145918278
H 4.6425844780366 -10.995163082182312 -10.619585086680795
H 4.32300135529695 -10.461090877802263 -12.013919609228596
O -7.886428673773725 14.788644012561166 -0.8690967686029802
H -7.490932377811017 14.371433492205849 -1.6491515221200812
H -7.973767803137033 14.06202265560649 -0.23399423798339303
O -7.8533177520371575 18.960086095224064 3.6751907475041667
H -8.248740899511024 19.172005276580784 2.8162971848813223
H -7.084426814618068 19.5472396918942 3.7301391284822234
O -6.205951541181431 10.919523374323116 -11.646352486054594
H -6.418199568643669 11.16480192268702 -12.55945519958188
H -6.936258890008298 11.290378131759914 -11.128588186941606
O 2.658094737495272 4.445297704504274 12.508533573850297
H 3.582776280241051 4.430788329583708 12.797879179389241
H 2.6736200581442953 3.991825062867794 11.652330635286093
O 0.5873447592110095 17.486362249752123 -8.224180175205854
H 0.5451528472582057 17.48701938426826 -7.256096104662394
H -0.3416100851906103 17.50871647153544 -8.498962143557536
O -4.203178181587275 -13.891129890398267 -8.909222657367867
H -4.516363716137375 -14.807005378622273 -8.954546689834164
H -3.2596975282350202 -13.955663998255513 -9.120508127699058
O 11.952386907300543 4.707446858689845 12.271837519599343
H 11.966222455449799 4.67290845132979 13.240126233219636
H 11.020505503708845 4.862930048502658 12.056468135457587
O 4.559614989695298 -1.887852356186348 8.812471623233671
H 4.727105620767663 -2.012743371863695 9.758683269540175
H 3.609354643485208 -1.7041812767842206 8.7652259534645
O -4.824064215183884 7.450204568923416 -4.912499819740734
H -4.027029502870651 7.6858650859277065 -5.410663593005143
H -4.485926811090262 7.1703406102946765 -4.048612555733747
O 7.306783305219869 -13.707411283525653 4.065384580185693
H 7.342239351257941 -14.642805947895468 4.315878188023959
H 6.579379591968921 -13.350238166881548 4.596678422607633
O -15.157368575748528 5.840646390692843 -1.1225294715249632
H -14.827493591325858 6.03047958695068 -2.0136597701629784
H -14.487245243610356 5.250891286380361 -0.7455870608553643
O -6.350922238310982 -7.704031733545997 6.174845200873817
H -6.918565100335988 -7.448933829303762 5.432097600848557
H -6.784495392181366 -7.310256254000904 6.94680189412281
O 2.535942932967731 1.4148746363295839 -22.404252751524208
H 1.7993861254677688 1.4344354463942555 -23.03359272398351
H 2.6000924341650187 2.329434825819267 -22.090522858787264
O -7.498597759379852 -4.343351443218161 9.606504117889571
H -8.446952845975966 -4.388458063279435 9.800296221582999
H -7.4406864345058015 -4.571354578555526 8.666491994016873
O 7.4691451865693645 0.708029893232901 -16.548768191889113
H 6.946543084889275 1.051125948423629 -15.808403756538437
H 6.987851701956544 -0.08561827943624234 -16.82705060956615
O 9.392069111269556 -10.600858245933768 -4.782527268651872
H 9.395982417918596 -10.603790293665913 -5.751518210832018
H 8.76211233718238 -11.299094301758956 -4.548897609945266
O 7.1585945312065995 -12.68721480568365 -0.18542643338624476
H 6.81487838428402 -12.003595251521942 0.40912455047674
H 6.53961473252329 -12.681814122533684 -0.930944230453143
O -9.682741438270691 7.978215504047737 -1.9986880098068593
H -9.56558146441386 7.902724272759818 -2.957615520844321
H -9.185907687480594 7.2264856559642645 -1.642288790003781