194

C -5.0710522388059704 1.0783507462686561 0.47044029850746183
C -3.8153522388059704 0.1782507462686569 0.19534029850746193
C -4.11845223880597 -1.3219492537313435 0.5608402985074619
C -2.96945223880597 -2.3874492537313436 0.7034402985074619
C -2.52015223880597 0.7359507462686565 0.7384402985074618
C -2.20305223880597 0.7852507462686571 2.097440298507462
C -1.5755522388059702 1.205650746268656 -0.18965970149253808
C -0.9533522388059701 1.2695507462686564 2.508640298507462
H -2.91125223880597 0.4298507462686567 2.840840298507462
C -0.32655223880597006 1.6562507462686575 0.21554029850746192
H -1.7850522388059702 1.178550746268657 -1.2573597014925382
C 0.004447761194029898 1.6956507462686563 1.569740298507462
H -0.7158522388059702 1.2676507462686573 3.5705402985074617
H 0.3943477611940298 1.9193507462686572 -0.5551597014925382
C -1.76045223880597 -2.1592492537313435 -0.1734597014925381
C -0.5287522388059701 -1.936549253731343 0.464840298507462
C -1.8068522388059702 -2.121249253731343 -1.5681597014925381
C 0.6114477611940299 -1.614449253731343 -0.2582597014925381
H -0.4544522388059702 -1.954049253731343 1.5506402985074619
C -0.6479522388059701 -1.8270492537313432 -2.2998597014925384
H -2.74345223880597 -2.290549253731343 -2.092259701492538
C 0.5698477611940298 -1.5506492537313434 -1.6506597014925382
H 1.5072477611940298 -1.351949253731343 0.2991402985074618
H -0.7173522388059701 -1.7640492537313435 -3.3840597014925375
C 1.7791477611940298 -1.082849253731343 -2.4255597014925376
H 1.4739477611940297 -0.9102492537313429 -3.464259701492538
H 2.1252477611940295 -0.1337492537313434 -2.0010597014925384
C 1.3965477611940298 2.0964507462686566 1.997440298507462
H 1.51704776119403 1.8448507462686567 3.057640298507462
H 2.1256477611940294 1.5207507462686571 1.4165402985074618
C 3.94864776119403 -1.4275492537313434 -3.522959701492538
H 4.81734776119403 -2.087049253731343 -3.615159701492538
H 3.4305477611940303 -1.3641492537313429 -4.484459701492538
H 4.26984776119403 -0.441449253731343 -3.176459701492538
C 2.60904776119403 -3.4296492537313434 -2.8992597014925376
H 1.9825477611940296 -3.869549253731343 -2.119359701492538
H 2.06294776119403 -3.373349253731343 -3.845759701492538
H 3.5215477611940305 -4.019849253731343 -3.0234597014925377
C 3.7281477611940304 -2.060049253731343 -1.156659701492538
H 3.9048477611940298 -1.032549253731343 -0.8295597014925382
H 3.12924776119403 -2.623249253731343 -0.4404597014925382
H 4.68244776119403 -2.5769492537313434 -1.3005597014925383
C 3.1110477611940297 3.755250746268656 2.588740298507462
H 3.40124776119403 4.809350746268656 2.534540298507462
H 2.9823477611940303 3.461750746268656 3.634840298507462
H 3.86514776119403 3.1392507462686563 2.091540298507462
C 1.99744776119403 3.9574507462686572 0.40494029850746194
H 2.67914776119403 3.230350746268657 -0.04295970149253803
H 1.03214776119403 3.981150746268657 -0.10175970149253821
H 2.4399477611940297 4.958250746268657 0.368240298507462
C 0.7418477611940297 4.4992507462686575 2.475440298507462
H -0.18475223880597014 4.424250746268656 1.901240298507462
H 0.57844776119403 4.189650746268656 3.511940298507462
H 1.1210477611940297 5.524350746268658 2.4432402985074617
N 3.00114776119403 -2.025349253731343 -2.490159701492538
N 1.7831477611940298 3.586450746268657 1.862540298507462
C -3.55075223880597 -3.8435492537313434 0.6444402985074619
H -2.62515223880597 -2.2736492537313433 1.7424402985074618
H -4.67195223880597 -1.3478492537313436 1.5102402985074619
H -4.83415223880597 -1.6757492537313432 -0.1945597014925382
H -3.7169522388059697 0.17335074626865676 -0.900559701492538
H -3.9132522388059705 -4.043149253731343 -0.34225970149253815
H -4.35435223880597 -3.9354492537313432 1.3449402985074619
H -2.78115223880597 -4.545049253731343 0.8904402985074619
H -5.24235223880597 1.138950746268657 1.5249402985074618
H -5.92805223880597 0.6501507462686567 -0.006059701492538094
H -4.89895223880597 2.059650746268657 0.08004029850746197
C -2.5504074321422836 3.764061773670282 0.983035132509914
O -1.9563533007816054 2.8718592423352103 1.56856893229657
O -2.0245048302880653 4.775392082025114 0.5042147853379455
O -3.7694291894212837 3.7936932453343113 0.7786915112063779
O -5.559358715764758 4.988688516363043 -7.181486083868878
H -6.086258566249784 5.779168294200627 -6.990473976167028
H -6.087964402926044 4.261872880890353 -6.819164398300412
O -0.32115095788986975 -6.584138166862861 0.3481256648835882
H -0.29911691590291656 -5.678092763017029 0.0052502005185197445
H -1.0845155305206813 -6.590038385172275 0.9449519888473348
O 7.719512527889383 3.0511028358891648 -0.03581386927444352
H 7.542633681483728 3.6714934130774144 0.6872329911227482
H 6.99542185506762 3.207186252286929 -0.6605478998491578
O 10.180666438208343 2.068804368232915 -3.345473186745002
H 10.691762715162923 2.872687158956999 -3.523013073420717
H 9.61197553660899 1.976171893456923 -4.124557153564362
O -5.430364267880022 -0.7685174648115765 3.4604907611092632
H -6.076884101257176 -0.5206873252846105 4.138399076364375
H -5.137056616141664 -1.6522484395787278 3.728729703041319
O 1.0005437386028162 -5.3250916050443555 6.922677452282457
H 1.4533946443462704 -4.916933091494333 6.1694842221721675
H 1.3702941682744025 -4.868759959457882 7.69339659262738
O -5.573145017326492 1.8075500740132497 5.41174976285502
H -6.021605986772336 2.589113093446702 5.768133492053981
H -5.971020758635274 1.0683596980884422 5.895748137767715
O 9.163150217532237 -1.0836468937580843 2.8680084234938725
H 8.623529047830239 -0.30401561706414126 2.668129904112676
H 8.65469346958968 -1.8211921019914696 2.498602487451082
O 3.2879581206900923 8.442108092807032 -1.3312352018311961
H 4.027670809092328 8.128432318386075 -1.8728993081352332
H 2.5046214637247877 8.082649919351649 -1.7741070204091427
O 2.7287558637615525 -4.183357975012974 -7.927135189053277
H 2.3277831255386032 -3.939710624587785 -8.77497018994247
H 3.4534952177919456 -3.5491166977388606 -7.820117362401314
O -2.49617586300127 6.458445020240149 -9.053013060015777
H -1.9248339765629803 6.633994739882473 -9.815717525477096
H -2.3517179334117855 7.220403866495793 -8.472054741810856
O 2.157110572326762 -3.416964225201811 11.654462419137637
H 1.563549726796384 -3.9406607763240595 12.213385313547882
H 2.989847324475919 -3.399230769083093 12.149636096198687
O -8.315392152632345 4.599349927216419 -6.51597869944333
H -8.194934979729108 3.768360140746793 -6.032332753342956
H -8.747904000252486 5.182883612273882 -5.874586553894706
O 1.2486018095104567 0.013254091654609113 -7.698862859776938
H 1.4410507918833062 -0.06838395167522515 -6.752677901132524
H 0.7799339828889447 -0.8071226957654841 -7.914024053425224
O 4.389854841435396 -5.021407719108549 8.698337991032986
H 4.208456411331791 -4.924228757008781 9.645237254830969
H 5.131763720923734 -5.643830318618628 8.664822823489429
O -1.7012106769734614 8.426438353092227 0.5625273896137153
H -1.059596150542231 8.074970635731743 -0.07290049773923934
H -1.715758611678858 7.765070421495652 1.2705830095698563
O 8.060457523979968 3.8577238089487946 4.034957620755815
H 8.093739501706754 3.488769048433099 3.13956270701585
H 8.617112162237023 4.649165565032655 3.982827929275776
O -0.6024817384126542 -5.747221040172111 -9.976056212431514
H 0.25579341124460253 -5.594371682891849 -9.553009881210187
H -0.44924127957495363 -6.516368759026283 -10.545170517871671
O 8.585192707771665 2.4081195405364166 6.782736266843592
H 8.569899847347756 3.09897942537539 7.4620345112402156
H 7.733666104235208 2.5054993805005155 6.330650484565236
O -8.043669744695299 -1.166928610031779 -0.28859338293502956
H -8.859992515076552 -1.0072269919163752 -0.7856646903230122
H -7.873726651889342 -0.32458688751054954 0.1592254554444128
C 16.668647017874193 -10.718152118416786 7.0906573573958305
O 16.50197362834648 -9.53632878578967 6.999378394970272
O 16.835320407401905 -11.899975451043897 7.181936319821386
O 15.777048729012709 -4.423765171565415 -5.773401070932775
H 15.366463119625898 -5.049375352270034 -5.157772354852058
H 16.559747682955532 -4.894050688360581 -6.097709295449998
O -12.321131607901247 10.810371040556497 7.4345767879719995
H -11.595217340895365 10.690907485858933 8.065246505777075
H -13.1153277387085 10.604161742449318 7.950030156847333
O -12.162477556733112 9.503695517880745 -7.22381773501297
H -11.241461176167945 9.804438879405408 -7.208018553721281
H -12.460594993534441 9.709740112190955 -8.12250208634582
O 2.974987131586703 8.333635640612508 4.366356993312723
H 3.2434717633422654 9.252496812007175 4.216098858377207
H 2.889953803234419 8.26914450515293 5.329462476017742
O 7.909460351303737 17.998330574112504 3.128477528463158
H 8.318282941819316 18.205207425596353 2.274642992558068
H 6.958810989844983 18.006790577100556 2.940977757243277
O -7.653748958138736 -6.706976394023828 -10.54773811546541
H -6.69144498277022 -6.726747844663596 -10.43572246642675
H -7.795906390336066 -7.102175969627925 -11.420990944956046
O 2.00183619754349 -13.076066713540786 -16.09747814486935
H 2.655733292748408 -12.368512578667493 -16.201175261542275
H 2.372895222708107 -13.637334412967615 -15.40015776389372
O -9.531730755049564 -11.668928059944324 -2.4449345379915486
H -9.412188084585939 -11.523558146240049 -3.3954841132521114
H -9.987978662322455 -10.869728648037528 -2.141487522160217
O -1.5654446896357013 6.1664533937607935 -3.8535594303074943
H -2.004364852596665 5.8532163619439075 -3.0484513572235947
H -1.2435991937200201 5.355574912701314 -4.275286249484861
O 3.5648571090195427 10.808495691737647 -9.961751493785581
H 3.568425085542637 10.733897882049686 -8.99563049037385
H 3.1969417909409863 9.96327250028262 -10.260411868876973
O 16.669078731817244 8.052023082011711 -4.2649724503846045
H 16.60756075102632 8.104659368256636 -5.230587444214833
H 17.38432825961006 8.666623738354648 -4.04215842363811
O 7.1199477601117005 -4.401684335380795 -0.3832454238754961
H 6.712585181370067 -5.280294956806013 -0.41590215763377447
H 7.748473584749686 -4.462277824733365 0.351768631167821
O 0.70683222621293 -2.5012888169487977 5.0811101747719984
H 0.5459799141699903 -2.4189959592438144 4.129100838588163
H 1.271367973479438 -1.74182272747901 5.2896109980406685
O -8.857541358543275 13.920782619184397 -8.182992759442403
H -8.93309154225382 13.028509925119304 -8.553275038342067
H -8.401787249201854 13.785948795557518 -7.338558051413081
O -12.328245447901828 7.778716381529468 7.2518457729962815
H -11.749094681293899 7.37987715619057 7.91853836990172
H -11.755878341312679 8.412058725110475 6.793331525211025
O -2.340583428597939 -0.3457142092979224 -6.560945743506801
H -2.942152936570711 0.38118784059704014 -6.781614938991578
H -2.8699739312943056 -0.9225043938569699 -5.9899634995173505
O 3.8665062422436236 17.06528380343709 -7.21171983672988
H 3.4614620342632287 17.43113463191039 -6.41105778705665
H 3.7145891189034073 16.111272491637056 -7.135920437697902
O -12.538944824776301 -2.8083223517170075 -9.383252442519067
H -12.31756597178942 -3.135470680979276 -8.498417581648905
H -11.846801960048042 -3.180316447238378 -9.950280300743861
O 17.60907917491871 -5.065317301947579 1.7576734789713448
H 18.157208271767328 -5.374512506173337 1.0208423071472215
H 17.71942636397123 -5.7496821127564255 2.434748251721577
O 9.591590213938922 -2.9256742538707776 -7.050570105418419
H 10.260564921207378 -3.339522302910014 -6.484734448852398
H 9.78951117432635 -1.9788567117043092 -6.992900532980582