194

C -5.0710522388059704 1.0783507462686561 0.47044029850746183
C -3.8153522388059704 0.1782507462686569 0.19534029850746193
C -4.11845223880597 -1.3219492537313435 0.5608402985074619
C -2.96945223880597 -2.3874492537313436 0.7034402985074619
C -2.52015223880597 0.7359507462686565 0.7384402985074618
C -2.20305223880597 0.7852507462686571 2.097440298507462
C -1.5755522388059702 1.205650746268656 -0.18965970149253808
C -0.9533522388059701 1.2695507462686564 2.508640298507462
H -2.91125223880597 0.4298507462686567 2.840840298507462
C -0.32655223880597006 1.6562507462686575 0.21554029850746192
H -1.7850522388059702 1.178550746268657 -1.2573597014925382
C 0.004447761194029898 1.6956507462686563 1.569740298507462
H -0.7158522388059702 1.2676507462686573 3.5705402985074617
H 0.3943477611940298 1.9193507462686572 -0.5551597014925382
C -1.76045223880597 -2.1592492537313435 -0.1734597014925381
C -0.5287522388059701 -1.936549253731343 0.464840298507462
C -1.8068522388059702 -2.121249253731343 -1.5681597014925381
C 0.6114477611940299 -1.614449253731343 -0.2582597014925381
H -0.4544522388059702 -1.954049253731343 1.5506402985074619
C -0.6479522388059701 -1.8270492537313432 -2.2998597014925384
H -2.74345223880597 -2.290549253731343 -2.092259701492538
C 0.5698477611940298 -1.5506492537313434 -1.6506597014925382
H 1.5072477611940298 -1.351949253731343 0.2991402985074618
H -0.7173522388059701 -1.7640492537313435 -3.3840597014925375
C 1.7791477611940298 -1.082849253731343 -2.4255597014925376
H 1.4739477611940297 -0.9102492537313429 -3.464259701492538
H 2.1252477611940295 -0.1337492537313434 -2.0010597014925384
C 1.3965477611940298 2.0964507462686566 1.997440298507462
H 1.51704776119403 1.8448507462686567 3.057640298507462
H 2.1256477611940294 1.5207507462686571 1.4165402985074618
C 3.94864776119403 -1.4275492537313434 -3.522959701492538
H 4.81734776119403 -2.087049253731343 -3.615159701492538
H 3.4305477611940303 -1.3641492537313429 -4.484459701492538
H 4.26984776119403 -0.441449253731343 -3.176459701492538
C 2.60904776119403 -3.4296492537313434 -2.8992597014925376
H 1.9825477611940296 -3.869549253731343 -2.119359701492538
H 2.06294776119403 -3.373349253731343 -3.845759701492538
H 3.5215477611940305 -4.019849253731343 -3.0234597014925377
C 3.7281477611940304 -2.060049253731343 -1.156659701492538
H 3.9048477611940298 -1.032549253731343 -0.8295597014925382
H 3.12924776119403 -2.623249253731343 -0.4404597014925382
H 4.68244776119403 -2.5769492537313434 -1.3005597014925383
C 3.1110477611940297 3.755250746268656 2.588740298507462
H 3.40124776119403 4.809350746268656 2.534540298507462
H 2.9823477611940303 3.461750746268656 3.634840298507462
H 3.86514776119403 3.1392507462686563 2.091540298507462
C 1.99744776119403 3.9574507462686572 0.40494029850746194
H 2.67914776119403 3.230350746268657 -0.04295970149253803
H 1.03214776119403 3.981150746268657 -0.10175970149253821
H 2.4399477611940297 4.958250746268657 0.368240298507462
C 0.7418477611940297 4.4992507462686575 2.475440298507462
H -0.18475223880597014 4.424250746268656 1.901240298507462
H 0.57844776119403 4.189650746268656 3.511940298507462
H 1.1210477611940297 5.524350746268658 2.4432402985074617
N 3.00114776119403 -2.025349253731343 -2.490159701492538
N 1.7831477611940298 3.586450746268657 1.862540298507462
C -3.55075223880597 -3.8435492537313434 0.6444402985074619
H -2.62515223880597 -2.2736492537313433 1.7424402985074618
H -4.67195223880597 -1.3478492537313436 1.5102402985074619
H -4.83415223880597 -1.6757492537313432 -0.1945597014925382
H -3.7169522388059697 0.17335074626865676 -0.900559701492538
H -3.9132522388059705 -4.043149253731343 -0.34225970149253815
H -4.35435223880597 -3.9354492537313432 1.3449402985074619
H -2.78115223880597 -4.545049253731343 0.8904402985074619
H -5.24235223880597 1.138950746268657 1.5249402985074618
H -5.92805223880597 0.6501507462686567 -0.006059701492538094
H -4.89895223880597 2.059650746268657 0.08004029850746197
C 4.693510524291208 -0.12672786062411712 2.2585252235453472
O 4.492768551532221 -0.19531469133660861 3.461344414290841
O 4.012899335570899 0.5256085663101362 1.4586145660445353
O 5.608346664335139 -0.6990498614080916 1.6550596083789573
O -9.055553519905732 4.761087578690741 -2.0464425228847123
H -9.285955509988973 5.700177126000332 -2.109633519075248
H -9.100816565262829 4.446863781824846 -2.9619623787634266
O 5.111945949492227 3.3541194340558036 -0.9751561831506672
H 4.231758512970077 3.6075844478680335 -1.2913727549202918
H 4.933944962306759 2.8474178159118786 -0.16860112425429707
O -12.037412875863929 -3.2259525368255635 1.2963845762138297
H -11.29004509104888 -3.290990538063822 1.9097187506371862
H -12.40281179177073 -2.3445285311129536 1.4653144394934494
O -2.141038745947265 -2.6373383453608854 -5.351169749729441
H -2.139913309337054 -2.46650987375915 -6.304995584765718
H -2.9986028012376615 -2.298175708286318 -5.053655815624643
O -6.682095740691224 6.9030300700292955 6.738870616145704
H -7.559342630433255 7.262008076539441 6.537525037152932
H -6.591966577502836 7.028059075812842 7.6955348341217595
O -1.8083596372668196 -5.353877687237982 6.49263895621115
H -1.471251643726008 -6.2450806739920095 6.668942087186155
H -1.1599998747308846 -4.975327408340605 5.880028762881767
O -6.083365063849684 6.7768809751461845 -2.0646562018762156
H -5.517792271854476 7.561994787780649 -2.012780628960613
H -6.523051093986157 6.747716162728495 -1.201645452858875
O -1.6978253654784181 2.338777758326801 -5.163108796271717
H -1.6299283580348194 3.297736307955133 -5.041635122683857
H -1.9832190431225638 2.012687105141614 -4.296403956683287
O -8.80889328189308 3.2767627187793082 1.2246509909690333
H -8.167340657264903 2.569617025397386 1.3899463480245156
H -9.463846622026393 3.168284961108013 1.9305055387611567
O 2.6041611721351474 -7.629813134219411 -8.599626403304647
H 2.3989709623154845 -7.567301070624737 -9.544590199753642
H 2.366515697742456 -6.7577617674279455 -8.250322829778975
O 1.0938475545803668 -7.475963797845123 -2.7647557403790293
H 1.4439540019067825 -7.3224532750028555 -1.8743472095252578
H 1.7226843641522194 -7.021310784074755 -3.3451149811058514
O -4.42157247158642 4.992710097304945 9.26533076830447
H -3.4991606053514834 5.271672201080195 9.163822883949267
H -4.520197927967651 4.272608626947717 8.624480679716703
O 4.659570568387323 10.528135130389208 -1.5374386528013646
H 4.273935786611497 9.843787080302327 -2.104819405318575
H 5.473823520011175 10.123235708054322 -1.20275890608113
O 4.8516183667144315 -6.8689048221097195 -2.772443672743382
H 5.71027249522067 -6.541019691841674 -3.0793178910288272
H 4.353301151580298 -7.020405239439336 -3.5895663813679257
O 3.083630712830604 6.079421964001124 7.439948142325073
H 2.1942394520065203 5.884015328297547 7.1086374289565555
H 3.652716343089791 5.455400032853168 6.964869076085696
O 6.6927061678707345 -7.429844239830565 0.1737149169742458
H 7.6137902724518005 -7.591832423644045 -0.07992115595882243
H 6.318355575886679 -6.9640049500598655 -0.5890545991229277
O 0.3344748921934644 3.9368810452017984 -7.4464563607397
H 0.5821302892721443 3.892041222389519 -6.510708771115251
H 0.89971146817128 3.273629978388631 -7.8702105109825835
O -3.405955260195033 0.6290574760656973 8.063565398796413
H -3.605958814792362 0.5628256008564496 7.117743389243505
H -3.4507516305882264 1.5796229833623885 8.246268561980246
O 5.402060732779619 4.330514679248822 -8.67918701658257
H 6.208679798461299 3.9682736016656968 -9.07556365753185
H 5.511604851002406 4.16308753744266 -7.731067729441225
O 7.257184825235784 -2.4170155966738243 -3.5217016011838256
H 6.759357797030595 -1.6453386258862968 -3.830975362832911
H 7.049975027408589 -2.4657291898395863 -2.576369368672264
C 17.816383356564288 -2.3004203926425766 -4.276043744988266
O 16.935314760908923 -2.750504279727359 -4.949809937102819
O 18.697451952219645 -1.8503365055577945 -3.6022775528737156
O 10.362208541720438 -1.5372544400213064 13.929762180591666
H 10.391399277383044 -2.435087482215601 13.566428881545717
H 11.184297935924057 -1.4633328642483465 14.437370861440577
O 7.264451485421145 -1.8917302007239214 0.5852517523334035
H 7.154252667831507 -2.0803250399734328 -0.3588115739907884
H 7.598953671892213 -2.723653394489766 0.9526398730184803
O 5.221038524564328 -14.182176003529406 1.8957492836802858
H 5.274542568832264 -14.133766482169733 2.8620624794862333
H 5.758295719123002 -14.956378097149472 1.670077465702834
O 7.020209887661393 -8.482456326529938 3.3573619532312247
H 7.093170414587037 -8.525864640262586 4.322639030919088
H 7.815728643639996 -8.936937821356297 3.041833152570091
O -7.121834737037645 -5.664514877208074 -2.570899842634242
H -6.753197420864353 -6.543239711008901 -2.3950688087231016
H -7.241627518431427 -5.649047701210062 -3.5323427168044086
O 10.163975225069425 5.414587081354825 -13.480926990106362
H 9.923471712813967 5.5544368543168385 -12.552720408307211
H 9.346886661864882 5.089624614117497 -13.888023562269977
O 5.216241230581403 14.836260636579336 -7.265348069054472
H 4.46324627763104 15.199207802992152 -6.775210014906271
H 4.854476392369321 14.64781140101538 -8.144310543650942
O -12.529821921878133 7.629035528554729 -8.365709632783677
H -11.903641584555618 7.348212379302548 -9.04981773892974
H -13.001682097085428 6.815548991291246 -8.132151132522164
O 4.269257250397889 -3.899559906083735 19.48433455930089
H 3.3583018030166407 -3.6318982147483716 19.677944344120583
H 4.3753563418282635 -3.7036735704015333 18.54128977214036
O -13.913683069708263 -9.619833375264587 -7.874411771756051
H -13.85730873685267 -9.514897383079854 -6.912758128785106
H -13.064259020610931 -10.018330951941673 -8.116569593222932
O -9.172813642206643 -5.834763432362621 -14.23763078571558
H -9.166040636418781 -5.628725010020398 -13.290809972778241
H -8.970288565737006 -6.781719586769832 -14.272553261734267
O -1.8666621547806308 -1.6699366623457361 -20.834626036808075
H -1.3034647341628993 -2.0420411582560716 -21.529834111008057
H -2.5641607463434433 -1.2060544446378607 -21.32173069410701
O 7.664950352127043 3.8889520938875153 -1.1661585916389021
H 6.879502284218454 4.045589185796357 -1.7115974158502048
H 8.173546404158417 4.709777641409835 -1.2470129093515638
O -0.3792872933686836 -11.052589162492097 -1.320181340155857
H 0.1479146421274261 -11.537811986351999 -1.9725495546747602
H -0.9711124818915096 -11.725013868646919 -0.9506547442489772
O -0.24742113183473968 -19.941327698660594 0.5777230144840526
H -1.0276645864082834 -19.367385494655174 0.6056130656949854
H -0.49157266635106467 -20.695487322768415 1.135033730206326
O -7.757832618600074 -6.218651570044633 -9.883590636107098
H -7.766513376839459 -6.213113231238374 -8.914642067740512
H -8.694542176937471 -6.272483543361005 -10.12574609499296
O 12.848972817454063 8.966633915519301 -3.162865564330878
H 12.778446501988608 9.101463491172021 -4.119847477041968
H 13.800344251093161 9.02369329212053 -2.9879411032130485
O -0.3683599709035741 -6.280832361477881 -8.677316055603017
H -0.6835213470292596 -6.562072031077747 -7.805223794347405
H -0.060378728345716226 -7.101340179644895 -9.090688065854465
O 3.4013773117947173 -10.729435737264952 15.26787845858163
H 2.768178102408731 -10.922687666485512 15.975465774738081
H 2.854340554186779 -10.35908308592723 14.558969688870807
O 13.534163112350786 13.15344210654378 -14.041312655211248
H 13.773673355425624 12.724585195524494 -13.20603787992276
H 13.389187347029505 12.414218137405467 -14.650814004857747