194

C -5.0710522388059704 1.0783507462686561 0.47044029850746183
C -3.8153522388059704 0.1782507462686569 0.19534029850746193
C -4.11845223880597 -1.3219492537313435 0.5608402985074619
C -2.96945223880597 -2.3874492537313436 0.7034402985074619
C -2.52015223880597 0.7359507462686565 0.7384402985074618
C -2.20305223880597 0.7852507462686571 2.097440298507462
C -1.5755522388059702 1.205650746268656 -0.18965970149253808
C -0.9533522388059701 1.2695507462686564 2.508640298507462
H -2.91125223880597 0.4298507462686567 2.840840298507462
C -0.32655223880597006 1.6562507462686575 0.21554029850746192
H -1.7850522388059702 1.178550746268657 -1.2573597014925382
C 0.004447761194029898 1.6956507462686563 1.569740298507462
H -0.7158522388059702 1.2676507462686573 3.5705402985074617
H 0.3943477611940298 1.9193507462686572 -0.5551597014925382
C -1.76045223880597 -2.1592492537313435 -0.1734597014925381
C -0.5287522388059701 -1.936549253731343 0.464840298507462
C -1.8068522388059702 -2.121249253731343 -1.5681597014925381
C 0.6114477611940299 -1.614449253731343 -0.2582597014925381
H -0.4544522388059702 -1.954049253731343 1.5506402985074619
C -0.6479522388059701 -1.8270492537313432 -2.2998597014925384
H -2.74345223880597 -2.290549253731343 -2.092259701492538
C 0.5698477611940298 -1.5506492537313434 -1.6506597014925382
H 1.5072477611940298 -1.351949253731343 0.2991402985074618
H -0.7173522388059701 -1.7640492537313435 -3.3840597014925375
C 1.7791477611940298 -1.082849253731343 -2.4255597014925376
H 1.4739477611940297 -0.9102492537313429 -3.464259701492538
H 2.1252477611940295 -0.1337492537313434 -2.0010597014925384
C 1.3965477611940298 2.0964507462686566 1.997440298507462
H 1.51704776119403 1.8448507462686567 3.057640298507462
H 2.1256477611940294 1.5207507462686571 1.4165402985074618
C 3.94864776119403 -1.4275492537313434 -3.522959701492538
H 4.81734776119403 -2.087049253731343 -3.615159701492538
H 3.4305477611940303 -1.3641492537313429 -4.484459701492538
H 4.26984776119403 -0.441449253731343 -3.176459701492538
C 2.60904776119403 -3.4296492537313434 -2.8992597014925376
H 1.9825477611940296 -3.869549253731343 -2.119359701492538
H 2.06294776119403 -3.373349253731343 -3.845759701492538
H 3.5215477611940305 -4.019849253731343 -3.0234597014925377
C 3.7281477611940304 -2.060049253731343 -1.156659701492538
H 3.9048477611940298 -1.032549253731343 -0.8295597014925382
H 3.12924776119403 -2.623249253731343 -0.4404597014925382
H 4.68244776119403 -2.5769492537313434 -1.3005597014925383
C 3.1110477611940297 3.755250746268656 2.588740298507462
H 3.40124776119403 4.809350746268656 2.534540298507462
H 2.9823477611940303 3.461750746268656 3.634840298507462
H 3.86514776119403 3.1392507462686563 2.091540298507462
C 1.99744776119403 3.9574507462686572 0.40494029850746194
H 2.67914776119403 3.230350746268657 -0.04295970149253803
H 1.03214776119403 3.981150746268657 -0.10175970149253821
H 2.4399477611940297 4.958250746268657 0.368240298507462
C 0.7418477611940297 4.4992507462686575 2.475440298507462
H -0.18475223880597014 4.424250746268656 1.901240298507462
H 0.57844776119403 4.189650746268656 3.511940298507462
H 1.1210477611940297 5.524350746268658 2.4432402985074617
N 3.00114776119403 -2.025349253731343 -2.490159701492538
N 1.7831477611940298 3.586450746268657 1.862540298507462
C -3.55075223880597 -3.8435492537313434 0.6444402985074619
H -2.62515223880597 -2.2736492537313433 1.7424402985074618
H -4.67195223880597 -1.3478492537313436 1.5102402985074619
H -4.83415223880597 -1.6757492537313432 -0.1945597014925382
H -3.7169522388059697 0.17335074626865676 -0.900559701492538
H -3.9132522388059705 -4.043149253731343 -0.34225970149253815
H -4.35435223880597 -3.9354492537313432 1.3449402985074619
H -2.78115223880597 -4.545049253731343 0.8904402985074619
H -5.24235223880597 1.138950746268657 1.5249402985074618
H -5.92805223880597 0.6501507462686567 -0.006059701492538094
H -4.89895223880597 2.059650746268657 0.08004029850746197
C 4.242266271274253 0.07198610999793997 2.931395923661193
O 3.487999552036421 -0.725892068216571 2.396374776808763
O 3.928993273352508 0.8493576176889261 3.840343134396429
O 5.435583238505047 0.22552686766602337 2.646671081306664
O 7.0602390651114035 -4.13750880745502 -6.476206968204312
H 7.961505257488796 -3.9874971315844268 -6.7989810447347185
H 6.685412481882448 -4.765416229872036 -7.111973627977001
O 7.353206125267115 -0.04147326979034549 -0.42645569977610664
H 6.483557337390566 -0.05715773472930619 -0.8535766899000172
H 7.148972065419004 -0.05091696533605994 0.520730242746478
O 8.361927481736046 -4.089102832069373 -0.17871290457271236
H 7.904399381917011 -4.132687954449937 0.6743613781735536
H 8.777302843296843 -4.960167059221984 -0.26630494464062987
O -1.7412221318664685 4.249596057765343 -3.7706679757440096
H -1.717697611267954 4.159716933138802 -2.806128864672314
H -2.6723843706408625 4.105127311291497 -3.9965608943424753
O 1.4304243542581556 -6.098659421474737 6.937912575905931
H 2.104042237196501 -6.726302210175959 6.635801943062567
H 1.9404642359426445 -5.400425560677454 7.3752805434428685
O -7.6880368297872055 0.017166494604035715 -1.0573425014044768
H -7.942552076372065 -0.37025910151654984 -0.20640727847240314
H -8.368662547673958 -0.2978926459961786 -1.6708963412387654
O 1.051278708785211 -7.009653428779014 -3.110539615807191
H 1.1936972578687655 -6.065304038550374 -2.946562352286512
H 0.6044215722517674 -7.033188213625754 -3.9700317668657963
O -3.7260906184879232 -7.768074899057092 8.840671498747508
H -3.613554316892564 -7.638647446224349 9.794375578730637
H -4.4338813744583945 -8.426695094085755 8.775759028734768
O 2.0945599801393673 -2.447000725627558 7.115691867627576
H 2.3524571675222647 -3.370428135610439 7.256184629477793
H 2.8964228492123336 -1.9453964332675162 7.32633615876325
O 7.922999464839192 -2.7271965670116476 7.97681786063103
H 7.4684087338108816 -1.9346860517062043 7.65395301693719
H 7.6771935342921065 -3.4141595204171216 7.339147656327654
O -5.215499259329398 5.554711337844202 -2.5834397443081
H -5.396803315725437 5.217665394136528 -1.6932171722147222
H -5.4856082148020455 4.830238344512068 -3.1675133513182554
O -2.481851130456609 5.276095344487077 4.563509362187995
H -1.5977870513556753 5.045141644932264 4.8860902816568395
H -3.031397073428506 5.269214853476397 5.361578193622089
O 2.5140125518101777 5.92375883956799 5.351556183325753
H 1.8379107713546168 5.777534990218818 4.672975071559199
H 2.4257112854533815 5.158026953908478 5.938769526110226
O 6.318485444158359 2.8997525035645593 -2.2135420920644653
H 5.6199426883707 2.769324810277706 -2.8723242958772692
H 5.865026170293187 3.3312992356179865 -1.473877269797192
O -2.5495050481552317 -2.755961374372397 -5.910696439143996
H -2.764693987027146 -2.6961344696833085 -4.967785086490681
H -2.4681199675785104 -1.832050232120881 -6.191279072574894
O -2.4122021298304044 6.144970038170628 11.006004524719135
H -1.7366082846607607 6.55541610752868 11.566427880243706
H -1.9039686608653694 5.592661034505742 10.393129782382278
O 7.008243391665497 -1.5239002322360404 -8.754395322465868
H 7.951659841765339 -1.7408516649569692 -8.797579051130151
H 6.626382767358637 -2.243468687872516 -8.229642384830534
O -2.674472204051542 3.3086329260916774 1.4971767008101697
H -2.620052828982179 4.147027349350619 1.014371688858794
H -3.2784023516684275 3.4996088961291445 2.230496890064287
O -4.703385331352951 -1.1310941411582798 7.4892093898685825
H -5.2876762720494375 -0.39408921560031596 7.255981618744909
H -5.210542747972557 -1.633561473080062 8.144403925422054
O 2.7543767056229393 -3.7483327785584137 10.50387556228735
H 2.653855363512534 -4.255558542993244 9.684372761453927
H 3.702646338787357 -3.552917282857922 10.54336519584292
C -13.013969319734429 1.9725208873551159 -6.383240861346117
O -12.45835905868707 1.5873981337159082 -7.371064711912725
O -13.56957958078179 2.3576436409943238 -5.395417010779509
O -9.20038239074809 -8.088352195056324 -1.5476371611969755
H -8.846478709019847 -8.472876426737631 -0.7316343081326638
H -8.50715451677497 -8.253745932730888 -2.2041750280293058
O 10.563655816708977 9.849117447173377 11.08759634822655
H 10.499267433147411 9.508202786414913 10.182831910904728
H 9.765430411855018 10.38849785896927 11.191840862310624
O -1.6253082902833047 -7.20898452056414 1.1461326103236975
H -1.5512712242832938 -6.331609497068701 0.7415353563729496
H -2.1495033708556956 -7.717089266040356 0.5089426626407061
O -12.721830475269133 1.7657894832923644 -12.351507668129106
H -12.367980557797507 2.174655307657008 -11.547401748195702
H -12.358502907184366 2.3068730521882266 -13.068573630255692
O -14.98607515691268 -0.4443580705181458 13.356742695975985
H -14.485364365361214 0.3596923502863407 13.152392553015344
H -14.341209625933109 -1.1579598452233513 13.238916984045119
O -10.870564855451084 3.016146120432281 0.8873220687049561
H -11.421536378998947 3.0013054407409334 0.09034183597289824
H -10.01629884839485 3.3503765281249787 0.5751016849024678
O 11.399803173992172 -14.991136484685146 0.7352863218440331
H 11.01578745376645 -15.732297665351751 1.2274035718895955
H 10.74841664368501 -14.808218993394632 0.04160143386219417
O -7.083865291406912 16.126238885255134 -11.260083041383997
H -7.094609029851884 16.710097969336402 -10.486803985078959
H -7.020725732787331 15.236746687030022 -10.880901066952214
O -12.89108957569146 -0.21361044604227608 -3.1585626919246685
H -12.350579389133681 0.4261293294301085 -3.6459527972877326
H -13.764269627071219 0.20408612752703714 -3.113306591773477
O -1.2278609207624775 -5.225227630581119 18.05788909547626
H -1.400211636476496 -6.047411939645092 18.540875171488665
H -0.3051084688135832 -5.309382604412608 17.77432640910564
O 7.72796497694192 -14.297736940682881 -6.511726896415599
H 7.678150330209922 -13.683522532102653 -7.259541390901636
H 8.292495891676822 -15.01560392250623 -6.835661746372209
O 3.6153101464878743 6.6011281075950565 -12.108270110485014
H 3.5713200694360534 6.565309992296135 -11.140928757788146
H 3.8485021265816677 5.696499153543643 -12.365621815767456
O -4.2846787978124805 13.721050403317765 4.680886836825624
H -4.267388249412685 13.418708686876354 3.760420715593942
H -4.239906828764935 12.902213539238836 5.197087965372429
O -2.066104186507208 -14.236825739474973 11.566942170295686
H -2.0975241387355625 -14.475001535752394 10.628191706343957
H -1.5325566413158702 -14.938825912537286 11.968793782636336
O -2.885401188169672 10.396833180650066 -7.606242914892604
H -3.5263968423044854 9.807458891353754 -7.18111954997749
H -3.402436156269358 11.186911855144217 -7.823986971462985
O 1.7523844772540444 22.30844239338225 3.252480813420606
H 1.0636342082774493 21.89182931690398 2.713014439684507
H 1.5878338305311914 21.969075832909013 4.145069949919398
O 9.892476042180501 7.4533236034532795 -10.215878319250653
H 10.008182144215086 7.698160769729204 -9.285483662740878
H 8.931131687141617 7.440812632641293 -10.336801645967274
O 17.965096623739115 6.414656785728338 9.62625782799343
H 17.547993683673212 5.59698249764101 9.31577231643248
H 17.67563641903471 6.48970024416334 10.547964513191381
O -8.42222389517378 -17.036598867095393 -9.795682816997788
H -8.696848500591425 -17.123417276871937 -10.720891575453452
H -7.528350671235378 -16.66654829607573 -9.850593459991607
O 4.198149612868266 -17.05343229654467 -8.3399203564414
H 4.164057370040957 -16.84506245855579 -7.394199950351156
H 4.212509662083746 -16.185453177578793 -8.77046417805048