194

C -5.0710522388059704 1.0783507462686561 0.47044029850746183
C -3.8153522388059704 0.1782507462686569 0.19534029850746193
C -4.11845223880597 -1.3219492537313435 0.5608402985074619
C -2.96945223880597 -2.3874492537313436 0.7034402985074619
C -2.52015223880597 0.7359507462686565 0.7384402985074618
C -2.20305223880597 0.7852507462686571 2.097440298507462
C -1.5755522388059702 1.205650746268656 -0.18965970149253808
C -0.9533522388059701 1.2695507462686564 2.508640298507462
H -2.91125223880597 0.4298507462686567 2.840840298507462
C -0.32655223880597006 1.6562507462686575 0.21554029850746192
H -1.7850522388059702 1.178550746268657 -1.2573597014925382
C 0.004447761194029898 1.6956507462686563 1.569740298507462
H -0.7158522388059702 1.2676507462686573 3.5705402985074617
H 0.3943477611940298 1.9193507462686572 -0.5551597014925382
C -1.76045223880597 -2.1592492537313435 -0.1734597014925381
C -0.5287522388059701 -1.936549253731343 0.464840298507462
C -1.8068522388059702 -2.121249253731343 -1.5681597014925381
C 0.6114477611940299 -1.614449253731343 -0.2582597014925381
H -0.4544522388059702 -1.954049253731343 1.5506402985074619
C -0.6479522388059701 -1.8270492537313432 -2.2998597014925384
H -2.74345223880597 -2.290549253731343 -2.092259701492538
C 0.5698477611940298 -1.5506492537313434 -1.6506597014925382
H 1.5072477611940298 -1.351949253731343 0.2991402985074618
H -0.7173522388059701 -1.7640492537313435 -3.3840597014925375
C 1.7791477611940298 -1.082849253731343 -2.4255597014925376
H 1.4739477611940297 -0.9102492537313429 -3.464259701492538
H 2.1252477611940295 -0.1337492537313434 -2.0010597014925384
C 1.3965477611940298 2.0964507462686566 1.997440298507462
H 1.51704776119403 1.8448507462686567 3.057640298507462
H 2.1256477611940294 1.5207507462686571 1.4165402985074618
C 3.94864776119403 -1.4275492537313434 -3.522959701492538
H 4.81734776119403 -2.087049253731343 -3.615159701492538
H 3.4305477611940303 -1.3641492537313429 -4.484459701492538
H 4.26984776119403 -0.441449253731343 -3.176459701492538
C 2.60904776119403 -3.4296492537313434 -2.8992597014925376
H 1.9825477611940296 -3.869549253731343 -2.119359701492538
H 2.06294776119403 -3.373349253731343 -3.845759701492538
H 3.5215477611940305 -4.019849253731343 -3.0234597014925377
C 3.7281477611940304 -2.060049253731343 -1.156659701492538
H 3.9048477611940298 -1.032549253731343 -0.8295597014925382
H 3.12924776119403 -2.623249253731343 -0.4404597014925382
H 4.68244776119403 -2.5769492537313434 -1.3005597014925383
C 3.1110477611940297 3.755250746268656 2.588740298507462
H 3.40124776119403 4.809350746268656 2.534540298507462
H 2.9823477611940303 3.461750746268656 3.634840298507462
H 3.86514776119403 3.1392507462686563 2.091540298507462
C 1.99744776119403 3.9574507462686572 0.40494029850746194
H 2.67914776119403 3.230350746268657 -0.04295970149253803
H 1.03214776119403 3.981150746268657 -0.10175970149253821
H 2.4399477611940297 4.958250746268657 0.368240298507462
C 0.7418477611940297 4.4992507462686575 2.475440298507462
H -0.18475223880597014 4.424250746268656 1.901240298507462
H 0.57844776119403 4.189650746268656 3.511940298507462
H 1.1210477611940297 5.524350746268658 2.4432402985074617
N 3.00114776119403 -2.025349253731343 -2.490159701492538
N 1.7831477611940298 3.586450746268657 1.862540298507462
C -3.55075223880597 -3.8435492537313434 0.6444402985074619
H -2.62515223880597 -2.2736492537313433 1.7424402985074618
H -4.67195223880597 -1.3478492537313436 1.5102402985074619
H -4.83415223880597 -1.6757492537313432 -0.1945597014925382
H -3.7169522388059697 0.17335074626865676 -0.900559701492538
H -3.9132522388059705 -4.043149253731343 -0.34225970149253815
H -4.35435223880597 -3.9354492537313432 1.3449402985074619
H -2.78115223880597 -4.545049253731343 0.8904402985074619
H -5.24235223880597 1.138950746268657 1.5249402985074618
H -5.92805223880597 0.6501507462686567 -0.006059701492538094
H -4.89895223880597 2.059650746268657 0.08004029850746197
C -0.5702528026744704 -1.2181723825055983 4.509645769373
O 0.465142184266333 -1.7387068773437255 4.8953614150259455
O -0.9642500869321327 -1.1982762608202502 3.33789419653878
O -1.3842955480720656 -0.6307359363452272 5.231380633979125
O 4.9962134868923345 -6.025848210455191 -0.7345127327647607
H 4.875418977915571 -5.867390974729213 -1.6828098106613159
H 5.264170305423512 -6.955738254045595 -0.6848579793761385
O 7.219609379558939 -6.757794551125804 4.4483702665137255
H 6.303558024234727 -6.7963504307877 4.134792978668814
H 7.191856470660575 -7.204764339909849 5.307677969412999
O 7.03391669168551 -0.043048999659834664 -1.7216274010464756
H 6.878027714537432 0.6005144566315037 -1.0141727654477872
H 6.681262028529519 -0.8723690616799527 -1.365502608894509
O 8.705226390349127 9.079991565785292 0.3817741147347853
H 8.243864699799584 8.735536887432158 -0.39762547594634134
H 8.637293148864066 8.362871383060119 1.0299142712823828
O 6.994578530184991 0.032243701415652914 7.151120868701072
H 7.950814857622509 -0.08637426394625969 7.04860637566614
H 6.898535624114569 0.3995434599440326 8.042652467624261
O -10.195317877815604 -0.9930483603401674 2.45329162710639
H -9.805178514720236 -1.1413787947352763 1.578787929861089
H -10.296575906650707 -1.884772109081485 2.818719474741406
O -7.808618172474213 3.721896274364538 -0.9988469232176183
H -6.864409169771021 3.558566172205113 -1.142930211085559
H -7.972819911412927 4.561951536994279 -1.4530571046948473
O 6.995847273881306 2.773577827138816 3.6560869483610308
H 6.2865681313086705 3.344920151578815 3.986931931872838
H 7.018320857994286 2.0388830157715523 4.287498396203986
O 3.157687106838826 5.829794381410349 5.118093501401795
H 2.621767581326425 6.313699296167349 4.471878635781555
H 4.028243741640413 5.763817621198397 4.697688747605089
O 11.865586462573862 -1.4576051701894737 1.732034415650745
H 11.442594071242208 -1.4423476048157076 0.8603624587343854
H 12.813280524801737 -1.485313837917741 1.531859146322212
O -0.842564827742595 5.160999052548475 6.7526270029243145
H -0.19943500475751297 5.428782373853043 7.426157611373753
H -0.7199260560446362 4.2025498433918616 6.679847957564567
O 0.3050106949381566 -7.236890246655442 6.183884931859675
H -0.23917774837096806 -6.684583351763051 5.602693578755451
H -0.33398211655630305 -7.635590885033599 6.793547077736599
O -2.673505066742365 2.4300874515797495 -4.56414473029599
H -2.557015880764104 2.8955036460789696 -3.7222507985278668
H -2.192450596606664 2.977558671068982 -5.202755570239559
O 5.8634040800251785 -5.336410776066662 7.331791330004886
H 5.921128790226399 -5.338235703610823 6.364510665269131
H 6.78462569905623 -5.2550491915661635 7.621088695180194
O -6.435065830474006 8.789160199805375 6.446360385747461
H -6.429839068237066 8.816072042517813 7.414975784436921
H -5.570384468632339 9.148855882818708 6.197549006575983
O 3.907607576182259 0.1814575965205245 7.704654501525194
H 3.09673748074187 0.3787894930750091 8.197114822589445
H 4.156198574246247 1.0320208348184492 7.312600120555287
O 2.354603212557101 -8.919899082197693 1.094423238423917
H 2.7628608487173887 -9.1229292882899 0.2393958734636077
H 1.4978032026652977 -9.37101646144777 1.0576972600441732
O -5.430584733752843 9.06779770887589 -5.596996126829717
H -5.295278329058788 8.915530967753197 -4.649644886108175
H -5.305599088570375 8.193120509748148 -5.99484073232836
O -4.24620984325377 5.57353229530069 0.5507611735342185
H -4.208204635894511 5.535964945702548 -0.4167674593019118
H -5.099356927563112 5.9942907356972235 0.7353264239730382
O 3.3176576279822094 9.864411173125937 1.5539921345717147
H 2.992039458297479 9.462600124955216 0.734548392732707
H 2.6904921707595286 9.562375926382902 2.2280842227106703
C 12.335794168851475 12.202724013288936 9.376657660340998
O 12.66135591676976 11.054551486390785 9.284312362308516
O 12.01023242093319 13.350896540187087 9.469002958373482
O -10.148557932635184 10.423510277696872 4.703389933017068
H -9.518569611951655 9.713952880841003 4.899885157563294
H -10.970784119574066 9.955267543794914 4.49445266022936
O 1.512225153398445 -0.25236051867408227 -20.89026234247322
H 1.257624440805063 0.49058781537832674 -20.322658953674587
H 1.039960356955676 -1.008924051181546 -20.51139623469806
O 3.4399396261343282 -6.010376058502304 -15.289423789684735
H 3.637249138498717 -6.010303767053469 -16.23812622354083
H 4.213610616233395 -5.585651877009761 -14.889418148431243
O -5.532168662982498 -9.046124391710853 0.3495447381754878
H -4.962881729554477 -8.600564214511234 0.9948011777574288
H -4.961195634072081 -9.728284761553603 -0.03465439557270844
O -4.375680105798483 13.76873917756205 0.61875942171825
H -4.234419647436464 13.771818913636157 -0.3398872050577834
H -3.531262168733991 14.0767537795069 0.9807639753532946
O -11.431639740010457 -0.5994021834985765 10.026555807471572
H -11.509816642424134 -1.4284109040645845 9.530975067274262
H -11.619544589857874 -0.8553805213651344 10.942049555263928
O 1.834092818018448 -9.83322146328391 6.761865916462472
H 1.7634425398859155 -8.904377912788426 6.494984756013217
H 1.3499723919843938 -10.312269947173926 6.072589551366958
O -7.002103533981437 3.160337704236393 -11.914582235419095
H -7.2681354524306565 2.9604794077956154 -12.824665218783812
H -6.4352861660879945 2.414347842579041 -11.667238058089623
O -4.630916271159527 -7.923222694590246 -9.866688811589789
H -5.246852179911383 -7.540962214437895 -9.223674629379381
H -3.7988046904854063 -8.000763703596668 -9.376240390723453
O -19.770327661659273 -9.073604896623111 -2.4983414126012287
H -19.754411543450082 -9.13931165165095 -3.4649833610107024
H -19.07536937205534 -8.429339341153991 -2.2960623626557566
O 7.076174129607348 -10.722394816895601 5.179699530673942
H 6.946736220828768 -11.252182238483371 5.980660498885509
H 8.03778343859382 -10.708628980427708 5.061040426864346
O -5.8458421142817425 -3.3054567816482674 -16.864640827962806
H -5.718909341510694 -3.482311866824373 -15.920406901997417
H -5.276634465479663 -2.540688146101373 -17.038115699137137
O -0.997055091369007 -5.438913114472316 -18.379061005066987
H -0.9413614290129999 -4.919428097373506 -19.195149780803565
H -0.11183448156735132 -5.362866211601629 -17.992326878248367
O -6.684654614016942 9.757001028986572 -15.512019912365856
H -6.9506680191157955 9.622174666470212 -16.433988500322258
H -7.3337702509559115 10.390714809701405 -15.17140623337832
O 10.609475907965145 -6.9847063379960534 -7.094261752541698
H 10.229427832172973 -6.986990710084117 -6.202900098312151
H 9.88738495116215 -6.664922665679019 -7.655764198950229
O -8.814934696061886 -0.8828670924049308 -14.398535694690992
H -8.632845380640854 -1.4270310597904736 -13.617705101854922
H -9.668061458293852 -1.211853821006951 -14.7193228581925
O -9.944533610816773 0.003087139988196319 12.526321083338077
H -9.146163982313897 0.11762946552119857 11.989242551980073
H -9.689951901333975 -0.65978430808625 13.185677997933274
O -3.0871152523394043 -18.409951530669584 8.025845056678735
H -2.9388050792558618 -18.214803073203253 7.088354507921872
H -3.4802114174328675 -17.59599994379138 8.375015736300126
O 14.415414408718195 13.273970960583412 3.2442832561012915
H 15.044602872294542 13.864780047402277 2.803790512534837
H 14.97303158744521 12.575816586576718 3.619257250324681
O -15.97277146183464 11.514430472883213 -7.340783395736257
H -16.778750084645644 11.50262145957952 -6.802985698012964
H -16.207905526766407 10.997964519845333 -8.126236663067509