194

C -5.0710522388059704 1.0783507462686561 0.47044029850746183
C -3.8153522388059704 0.1782507462686569 0.19534029850746193
C -4.11845223880597 -1.3219492537313435 0.5608402985074619
C -2.96945223880597 -2.3874492537313436 0.7034402985074619
C -2.52015223880597 0.7359507462686565 0.7384402985074618
C -2.20305223880597 0.7852507462686571 2.097440298507462
C -1.5755522388059702 1.205650746268656 -0.18965970149253808
C -0.9533522388059701 1.2695507462686564 2.508640298507462
H -2.91125223880597 0.4298507462686567 2.840840298507462
C -0.32655223880597006 1.6562507462686575 0.21554029850746192
H -1.7850522388059702 1.178550746268657 -1.2573597014925382
C 0.004447761194029898 1.6956507462686563 1.569740298507462
H -0.7158522388059702 1.2676507462686573 3.5705402985074617
H 0.3943477611940298 1.9193507462686572 -0.5551597014925382
C -1.76045223880597 -2.1592492537313435 -0.1734597014925381
C -0.5287522388059701 -1.936549253731343 0.464840298507462
C -1.8068522388059702 -2.121249253731343 -1.5681597014925381
C 0.6114477611940299 -1.614449253731343 -0.2582597014925381
H -0.4544522388059702 -1.954049253731343 1.5506402985074619
C -0.6479522388059701 -1.8270492537313432 -2.2998597014925384
H -2.74345223880597 -2.290549253731343 -2.092259701492538
C 0.5698477611940298 -1.5506492537313434 -1.6506597014925382
H 1.5072477611940298 -1.351949253731343 0.2991402985074618
H -0.7173522388059701 -1.7640492537313435 -3.3840597014925375
C 1.7791477611940298 -1.082849253731343 -2.4255597014925376
H 1.4739477611940297 -0.9102492537313429 -3.464259701492538
H 2.1252477611940295 -0.1337492537313434 -2.0010597014925384
C 1.3965477611940298 2.0964507462686566 1.997440298507462
H 1.51704776119403 1.8448507462686567 3.057640298507462
H 2.1256477611940294 1.5207507462686571 1.4165402985074618
C 3.94864776119403 -1.4275492537313434 -3.522959701492538
H 4.81734776119403 -2.087049253731343 -3.615159701492538
H 3.4305477611940303 -1.3641492537313429 -4.484459701492538
H 4.26984776119403 -0.441449253731343 -3.176459701492538
C 2.60904776119403 -3.4296492537313434 -2.8992597014925376
H 1.9825477611940296 -3.869549253731343 -2.119359701492538
H 2.06294776119403 -3.373349253731343 -3.845759701492538
H 3.5215477611940305 -4.019849253731343 -3.0234597014925377
C 3.7281477611940304 -2.060049253731343 -1.156659701492538
H 3.9048477611940298 -1.032549253731343 -0.8295597014925382
H 3.12924776119403 -2.623249253731343 -0.4404597014925382
H 4.68244776119403 -2.5769492537313434 -1.3005597014925383
C 3.1110477611940297 3.755250746268656 2.588740298507462
H 3.40124776119403 4.809350746268656 2.534540298507462
H 2.9823477611940303 3.461750746268656 3.634840298507462
H 3.86514776119403 3.1392507462686563 2.091540298507462
C 1.99744776119403 3.9574507462686572 0.40494029850746194
H 2.67914776119403 3.230350746268657 -0.04295970149253803
H 1.03214776119403 3.981150746268657 -0.10175970149253821
H 2.4399477611940297 4.958250746268657 0.368240298507462
C 0.7418477611940297 4.4992507462686575 2.475440298507462
H -0.18475223880597014 4.424250746268656 1.901240298507462
H 0.57844776119403 4.189650746268656 3.511940298507462
H 1.1210477611940297 5.524350746268658 2.4432402985074617
N 3.00114776119403 -2.025349253731343 -2.490159701492538
N 1.7831477611940298 3.586450746268657 1.862540298507462
C -3.55075223880597 -3.8435492537313434 0.6444402985074619
H -2.62515223880597 -2.2736492537313433 1.7424402985074618
H -4.67195223880597 -1.3478492537313436 1.5102402985074619
H -4.83415223880597 -1.6757492537313432 -0.1945597014925382
H -3.7169522388059697 0.17335074626865676 -0.900559701492538
H -3.9132522388059705 -4.043149253731343 -0.34225970149253815
H -4.35435223880597 -3.9354492537313432 1.3449402985074619
H -2.78115223880597 -4.545049253731343 0.8904402985074619
H -5.24235223880597 1.138950746268657 1.5249402985074618
H -5.92805223880597 0.6501507462686567 -0.006059701492538094
H -4.89895223880597 2.059650746268657 0.08004029850746197
C -2.535655578921383 1.0303731383703942 -4.463057153845429
O -3.539848211587212 0.7040488073247145 -5.076966826409121
O -2.3185636560559297 2.1554534415052795 -3.9986253799275637
O -1.5811102894146976 0.28601547064040134 -4.211217249993471
O -8.837052686631608 -8.765573597648597 -2.200387269220432
H -9.510040796529823 -9.102408598180507 -1.5899804022437398
H -8.093711843623515 -9.377302640922593 -2.089961216899897
O 1.997717315982245 8.575991685654225 -8.609435344414798
H 2.337563854589485 7.668684904615836 -8.625747676511589
H 2.729676750274714 9.093518131913497 -8.241517271642477
O 4.605709748783209 6.853571240062228 1.3702616966597954
H 3.8606895647473225 7.0594374781624305 0.7858548398471749
H 5.3030695080984085 7.4623230401343745 1.0837786146169468
O -0.7170994482102524 3.838039000207321 -8.03561633173888
H -0.6429416946800975 3.813706442454957 -7.0697613161570425
H -1.583019914773455 4.243179415028935 -8.193745817177662
O -2.2243229314840045 -6.81238180366203 8.528280784596623
H -2.1086409319562476 -6.848104863925987 7.566870937106678
H -1.4721758148336581 -6.284060131112194 8.835058993615313
O -6.794979308901649 -2.1693471159091957 2.9296189909735166
H -6.598696508944538 -2.5516955177072274 3.79809473558789
H -7.733961385144903 -1.9361373466689318 2.9833573229611234
O 8.856606036287069 -3.009008285579274 3.922066224831395
H 8.109718379044939 -3.62110752240088 4.002444758295065
H 8.44653672781773 -2.1322042602992437 3.967008496738949
O 8.811030739355513 2.538131168379652 -0.2226184303760106
H 9.048409531229977 3.0780247375619663 0.5462337010665728
H 8.026713787862462 2.0489348331730994 0.06806319876680611
O -0.909106274305167 -0.9256291444507215 7.336731875906342
H -0.881325715874111 -1.4125255373742476 8.174065441477028
H -0.039502466975049166 -0.5014401535474343 7.283676597437428
O -4.528359015930496 -0.6878994803419474 -9.425455448470242
H -3.5764058679348354 -0.5074036182908932 -9.438638949659232
H -4.596562890606366 -1.5532897740493499 -8.994863048007565
O -11.748904488349687 0.550385609221729 4.629341618571979
H -12.510423520657502 1.0312634708041708 4.271832733965082
H -11.350127465616922 1.174661029533846 5.254016758172171
O -0.800356539492054 0.9738684026271658 9.55823700065557
H -0.07159950511311397 0.6565974741735703 9.003962971224812
H -0.9027843633365933 1.902520910666952 9.30118641319488
O -0.6035352311826496 -4.418308105370763 -6.003249414057421
H -0.3571736669138662 -4.070791985971706 -5.132901274914895
H -0.10773285548631684 -5.247939149904058 -6.072922066514944
O 4.947053460618363 -5.658770710564131 5.306971602181089
H 5.7229570331505535 -5.3647797718597445 5.807481673000348
H 4.370583220974539 -6.05270678953698 5.978878123051729
O -1.5336747825398147 6.684633187986281 8.602552661087577
H -1.3009459859952397 7.461382253171902 8.072019387963092
H -1.9535389452098073 7.057749668449096 9.392147570653531
O -3.400082206759969 3.060325454915255 9.123968101320633
H -4.111083224778158 2.888312594164195 8.488471063551504
H -3.4805465130300863 4.00696538656478 9.314651817256347
O -5.937171605605668 9.071640390496889 4.562098066431686
H -6.130005190225064 9.502218019462894 3.7157024904881157
H -5.253714384276873 8.420562141128867 4.343133950391197
O 4.544526536871882 4.7311797279108925 5.9919347254886475
H 4.629102914034547 3.8642287960831023 5.567422917491549
H 4.245168033426581 5.313398959401223 5.277534839431967
O -4.2329914093368535 1.214508634835453 5.768557646503584
H -4.031426273328893 0.5723556655544173 6.465679168829242
H -3.880397245338091 0.8051275469908918 4.9641656868662345
O 1.1966818713553944 -9.842106280915578 5.45608540413753
H 0.39229642427509015 -9.589362298750846 4.978537617099487
H 1.7434766531669381 -10.272895992610133 4.7819951763625035
C -8.240840930771535 -9.20041995594343 12.224598700489045
O -8.265989959487452 -9.143267301538707 13.419972850179901
O -8.215691902055617 -9.25757261034815 11.029224550798187
O 0.021299338780589316 16.405010753441985 8.763097245509991
H -0.4905052486098498 17.218086726753413 8.636879644321509
H -0.6058550826326652 15.796239438846175 9.181471196093792
O 7.402970629992576 -7.541543293557584 -1.0957624831634065
H 6.966163175709177 -7.279415481353911 -0.27147150610993065
H 8.08240156550981 -6.863150265454164 -1.2265999685521423
O -4.064087751242027 -15.327543016414761 0.3867996640864497
H -4.660870155401839 -15.43304240301694 1.1429001854536809
H -4.5567424288469205 -14.757406189565693 -0.22245997810601725
O 7.012144408303596 -11.940503620360525 3.1980612208907004
H 7.0709980694616315 -11.69157923413982 2.263427467266886
H 6.989226344651202 -12.909088320186175 3.1813164927030186
O -8.201044721765216 -10.9616321040265 -10.175886787117223
H -7.989218803658161 -11.463400032740084 -9.374434303789243
H -8.85499384381362 -10.311199512744949 -9.878817882196348
O -12.288678972785352 -2.3810375454171835 3.0035868770157585
H -12.544790636598112 -3.118342061094631 2.4293428315780154
H -11.355450436758655 -2.551429523290732 3.2011040097455736
O -21.54702048969758 4.6572349041720855 8.697593683344738
H -22.11300547351935 4.192392092739985 9.33206158296471
H -21.982972801883445 4.5116149337900895 7.844538966444497
O 17.45429289400129 3.2026285661162897 3.9434428259102536
H 17.276471414723773 3.028789150528379 4.879993270892054
H 16.62859466372008 3.590264079920268 3.616451869998015
O 0.8766724135707644 18.25466255192903 -7.293669315083797
H 0.6432126840831991 17.894829281617227 -6.424771202999125
H 1.8158001958713808 18.03727898476449 -7.392387791256918
O 15.10464950503944 -13.588171511558834 7.05283936574605
H 14.743671896820823 -12.724186308946727 7.302222791282088
H 14.482510622017108 -13.918549582078446 6.38744062434999
O 9.259033055255303 -7.934444202030061 4.022194289589404
H 8.836099813727268 -8.672232983272208 3.5576918198609646
H 10.132868351612888 -7.867672788706659 3.6087751348536248
O 0.1349756065340486 -18.566153121868375 -14.501564214167464
H 0.41788755287837986 -18.61123353951099 -15.427250955706324
H 0.947184654357498 -18.73318904383442 -14.00018869850413
O 8.069409797233643 -9.18553067488089 -9.018458288150455
H 8.526183270104912 -8.948808312686753 -9.839608624336435
H 8.703373694830784 -9.751339282899265 -8.552719799365441
O 2.780459565671258 -1.7532090505606137 6.793290374480592
H 2.3676113493052964 -2.629716802900441 6.809348619454111
H 3.149073256960558 -1.6844437782826245 5.8997819927501185
O 15.590828536596467 6.845486912767923 8.89170770734641
H 15.875160525047725 6.968103632316153 9.809905843551546
H 15.24868379593225 7.714838013289876 8.634554864163443
O 10.405920685307006 11.060488372532474 12.220300997472123
H 9.965601706374141 11.125129685882813 11.359540836742163
H 10.12985641784915 10.196027944777262 12.560093041784864
O -1.169946572403541 -0.43320661916885683 -18.54418620105703
H -0.5616318871109014 -1.0319388865850718 -18.08544850638615
H -0.6386064576127604 0.36056626940444625 -18.70717156260866
O 14.665662294244797 16.278856150405296 -4.568347993409576
H 14.620465291639233 15.724387080279799 -3.7749447931830815
H 14.665614105669743 17.183772921331176 -4.22181144457968
O 7.082922205713966 -6.668698607447947 19.649630277967155
H 6.802252862586196 -5.741989287196209 19.61218815614174
H 7.03966204753871 -6.963791062912456 18.727669896094604
O 13.940537982433495 0.7260163247095259 10.701524464917544
H 13.540252349640735 1.5915363134340188 10.529437515388963
H 13.38539897987718 0.10804170244317479 10.2026357013885