194

C -5.0710522388059704 1.0783507462686561 0.47044029850746183
C -3.8153522388059704 0.1782507462686569 0.19534029850746193
C -4.11845223880597 -1.3219492537313435 0.5608402985074619
C -2.96945223880597 -2.3874492537313436 0.7034402985074619
C -2.52015223880597 0.7359507462686565 0.7384402985074618
C -2.20305223880597 0.7852507462686571 2.097440298507462
C -1.5755522388059702 1.205650746268656 -0.18965970149253808
C -0.9533522388059701 1.2695507462686564 2.508640298507462
H -2.91125223880597 0.4298507462686567 2.840840298507462
C -0.32655223880597006 1.6562507462686575 0.21554029850746192
H -1.7850522388059702 1.178550746268657 -1.2573597014925382
C 0.004447761194029898 1.6956507462686563 1.569740298507462
H -0.7158522388059702 1.2676507462686573 3.5705402985074617
H 0.3943477611940298 1.9193507462686572 -0.5551597014925382
C -1.76045223880597 -2.1592492537313435 -0.1734597014925381
C -0.5287522388059701 -1.936549253731343 0.464840298507462
C -1.8068522388059702 -2.121249253731343 -1.5681597014925381
C 0.6114477611940299 -1.614449253731343 -0.2582597014925381
H -0.4544522388059702 -1.954049253731343 1.5506402985074619
C -0.6479522388059701 -1.8270492537313432 -2.2998597014925384
H -2.74345223880597 -2.290549253731343 -2.092259701492538
C 0.5698477611940298 -1.5506492537313434 -1.6506597014925382
H 1.5072477611940298 -1.351949253731343 0.2991402985074618
H -0.7173522388059701 -1.7640492537313435 -3.3840597014925375
C 1.7791477611940298 -1.082849253731343 -2.4255597014925376
H 1.4739477611940297 -0.9102492537313429 -3.464259701492538
H 2.1252477611940295 -0.1337492537313434 -2.0010597014925384
C 1.3965477611940298 2.0964507462686566 1.997440298507462
H 1.51704776119403 1.8448507462686567 3.057640298507462
H 2.1256477611940294 1.5207507462686571 1.4165402985074618
C 3.94864776119403 -1.4275492537313434 -3.522959701492538
H 4.81734776119403 -2.087049253731343 -3.615159701492538
H 3.4305477611940303 -1.3641492537313429 -4.484459701492538
H 4.26984776119403 -0.441449253731343 -3.176459701492538
C 2.60904776119403 -3.4296492537313434 -2.8992597014925376
H 1.9825477611940296 -3.869549253731343 -2.119359701492538
H 2.06294776119403 -3.373349253731343 -3.845759701492538
H 3.5215477611940305 -4.019849253731343 -3.0234597014925377
C 3.7281477611940304 -2.060049253731343 -1.156659701492538
H 3.9048477611940298 -1.032549253731343 -0.8295597014925382
H 3.12924776119403 -2.623249253731343 -0.4404597014925382
H 4.68244776119403 -2.5769492537313434 -1.3005597014925383
C 3.1110477611940297 3.755250746268656 2.588740298507462
H 3.40124776119403 4.809350746268656 2.534540298507462
H 2.9823477611940303 3.461750746268656 3.634840298507462
H 3.86514776119403 3.1392507462686563 2.091540298507462
C 1.99744776119403 3.9574507462686572 0.40494029850746194
H 2.67914776119403 3.230350746268657 -0.04295970149253803
H 1.03214776119403 3.981150746268657 -0.10175970149253821
H 2.4399477611940297 4.958250746268657 0.368240298507462
C 0.7418477611940297 4.4992507462686575 2.475440298507462
H -0.18475223880597014 4.424250746268656 1.901240298507462
H 0.57844776119403 4.189650746268656 3.511940298507462
H 1.1210477611940297 5.524350746268658 2.4432402985074617
N 3.00114776119403 -2.025349253731343 -2.490159701492538
N 1.7831477611940298 3.586450746268657 1.862540298507462
C -3.55075223880597 -3.8435492537313434 0.6444402985074619
H -2.62515223880597 -2.2736492537313433 1.7424402985074618
H -4.67195223880597 -1.3478492537313436 1.5102402985074619
H -4.83415223880597 -1.6757492537313432 -0.1945597014925382
H -3.7169522388059697 0.17335074626865676 -0.900559701492538
H -3.9132522388059705 -4.043149253731343 -0.34225970149253815
H -4.35435223880597 -3.9354492537313432 1.3449402985074619
H -2.78115223880597 -4.545049253731343 0.8904402985074619
H -5.24235223880597 1.138950746268657 1.5249402985074618
H -5.92805223880597 0.6501507462686567 -0.006059701492538094
H -4.89895223880597 2.059650746268657 0.08004029850746197
C 0.5286051662890596 2.009523186679761 -3.5232535131679334
O -0.28218716342780636 2.1989324220615876 -2.629656602797061
O 0.4991172450589776 1.0682750269389474 -4.324386353829244
O 1.5040842453834022 2.7297916147495793 -3.7647122926212537
O 4.181775142582801 0.6984522704409155 -8.018123589683373
H 4.11308959712015 0.3661543241784613 -7.1104740275426455
H 5.1090585203097785 0.5451739440960006 -8.253948177807997
O -5.127908029775642 4.749541570254202 2.3977362088507963
H -4.593712471186287 4.002956254480316 2.0875542810177645
H -4.86822635108109 4.853694806637764 3.3254643335733403
O -7.4145440623162635 1.6435813203578153 -2.2615293368248097
H -7.099087210354946 2.1732117574859044 -1.5139024703210935
H -7.101358744968403 2.1279384394211 -3.0401660187955697
O -3.5820271811348556 -4.064126020532875 8.16678674752091
H -3.57379159500033 -4.013283152271155 7.199153276227184
H -3.661073622939085 -3.1405185777330797 8.44903290948403
O -4.354952361816428 0.029410877981164596 -4.7159173455306655
H -3.439650369147481 -0.18925693630491258 -4.946945495572177
H -4.883156833666236 -0.45654497883265543 -5.366923401912794
O 2.336148983374379 -8.999163410275646 3.3720662299663213
H 2.1683907794555415 -9.561320480922893 4.143301583045545
H 2.225712503948809 -8.098039170660703 3.710800392829285
O -7.486654210024657 9.547130892780022 -0.690385355404169
H -7.61597469861508 10.07750897519396 0.11020358895220372
H -6.613663559990522 9.81797050593615 -1.0120920124668062
O -0.735702180394247 2.3485681068563107 -6.360681433557122
H -0.9233441350592311 3.2711668954141215 -6.589961456893576
H -1.5327043707911532 1.8718911595407732 -6.637319357024736
O 5.506305680607822 1.0057834458747168 0.3461823628593139
H 5.895388440835376 0.2481078400255547 0.808253395163671
H 4.716871088627187 1.2172333558501465 0.8668011339920403
O 4.464604447711184 6.845492871819049 -9.197816368609628
H 4.179357715549742 5.919427902356094 -9.200125269818924
H 4.323924266607648 7.136013612565011 -10.111473158734395
O -5.339151437168912 -7.606929965867858 0.7171633300742628
H -5.831928879637484 -6.776997428286052 0.6314327511822677
H -5.9556195038145905 -8.279882104570666 0.3914878994359441
O 1.2656994129963457 2.3841827643346547 -8.213123382256475
H 1.7002878058482742 1.9732075162337903 -8.975487882444417
H 0.5086594322636544 2.8503811664223 -8.598495230947023
O 0.3625681048358995 -7.088917570465079 1.9008323260662134
H 0.169777052115208 -7.496437040810017 2.7585775377582573
H -0.3979332459896323 -6.510242270020267 1.7404124509021697
O 9.534872405458144 2.234181826684609 -5.471935482708369
H 9.456386515577146 1.6129530088352833 -4.732420724327497
H 9.081436492896152 1.7870945396517341 -6.202326320050035
O -0.4345628825812715 5.30263853922481 7.187626249793567
H -0.5602456785473995 5.226642464372816 8.145434053220344
H 0.5107925897454739 5.131447912757259 7.061298324727407
O 4.799506464812287 -10.295704233040507 -2.0778539064672743
H 4.695189403036881 -9.896389386056825 -1.2011367568112714
H 4.850869387194712 -9.535589922672637 -2.676644378734755
O -3.1351513474143777 -4.056472366622784 -3.3147120715997844
H -3.114427396380865 -4.328382721240066 -2.3848719596421075
H -2.658427065377435 -4.762914586669592 -3.775836016924357
O 3.253483190514968 5.653824928875707 -2.557327176168757
H 3.8861471627543267 6.297932098236627 -2.2054328603462623
H 3.5759875835096233 5.474426531926385 -3.453300990502167
O 8.726633967229931 4.6745792181240615 -2.03878073501032
H 9.610169322728355 4.518961016272138 -1.6725627565649002
H 8.12763406697828 4.331550725878076 -1.3587127109818744
O -6.395661367170092 0.9615251668140291 7.746069746225008
H -6.118349056213111 0.13863209042914548 7.316055532588389
H -6.0171215042032244 0.8997007932213721 8.635927747972985
C 6.608330176496979 -6.033280771728713 -4.574876545644484
O 6.645150272664606 -7.228763327566135 -4.622667721677659
O 6.571510080329352 -4.837798215891293 -4.527085369611308
O 19.383463741860805 0.2929275338698396 16.28736621775232
H 20.29083210971132 0.1437156956776029 15.981775266859488
H 19.11669734485351 -0.5628795436964573 16.65532257347292
O 10.147940232514577 13.912447731938956 2.5583468542575876
H 10.413734849086485 13.161273897013697 3.1097618054740654
H 9.276901716601365 14.159586905459939 2.903565737007472
O -9.840931441235876 11.733687936544182 -6.957422458066193
H -9.767614950456116 11.523689666459514 -7.900551704586091
H -8.959307921209438 12.05882362889042 -6.720803154545274
O -11.54118413100553 -6.847791629639831 6.684743585302182
H -11.683002399765378 -7.421600359171613 5.916890423910577
H -12.38321329137392 -6.884257121185593 7.1628848879686915
O -4.577426793784067 22.726033070461483 2.8839122116464084
H -3.881985545860843 22.303405769682467 2.3578751481012303
H -4.093521481454465 23.31796447311273 3.4792396909000605
O 10.226958653976048 5.822573337325597 17.27670959909054
H 11.11582831385632 6.048687995308638 17.58935995666198
H 9.810775414800847 5.397749970978388 18.04174460687454
O 8.127452863276362 -6.2126410729153765 11.200443994368714
H 7.987078820678503 -5.854713789728967 12.08991043275497
H 8.873180434685391 -5.698466976904776 10.856238630476636
O -2.2473253727960083 15.77605857399059 -1.877635753312247
H -2.7813775143291726 16.067603861332515 -2.631795558958607
H -1.8444371294020212 16.592747830002374 -1.546483723649403
O 12.105408643566161 14.687070602404816 5.976968309733704
H 11.790372855232436 15.525206700653257 6.3474378628441235
H 11.35616740576738 14.366595222451755 5.452663968033495
O -4.238404136880052 16.126716393013805 -7.096549412807776
H -4.077143911994494 15.877054459287157 -6.17425259745074
H -4.949066146087108 15.531741157570012 -7.379261142628801
O 3.19018269411076 -1.432481013361051 7.645639106131074
H 2.3389630400280996 -1.441050933194381 7.182693089972118
H 3.6571496180232126 -0.674575299898108 7.262908436113673
O 3.20809647049615 -7.944653464925299 -16.168320769585762
H 3.0872762727229954 -7.6454162294654875 -17.082009400151136
H 3.2559978464906676 -8.90962538353955 -16.242459819780386
O 5.460364695927684 -18.11727164024957 -8.282992042987024
H 5.9103384660001055 -17.27195746642251 -8.43109643412344
H 4.583498107033416 -17.86205357286232 -7.959062007855902
O -16.34152509382532 -5.244954078591002 10.308732178982702
H -16.189400139411205 -5.396178344319773 9.363768382533705
H -16.539350185600366 -6.1268918263296905 10.658035752508372
O -17.114177981575487 2.7764608418402963 0.10296613680578237
H -18.034775096259843 2.6347258724788416 -0.16420329968527403
H -17.020297441730428 2.2471606169002865 0.9091854992728798
O -5.700318910641856 -3.4736429682522485 -3.7090142890083784
H -5.791071650791432 -3.5353060588039154 -2.7462427894722934
H -6.610547263051327 -3.5400730400009683 -4.034641892779004
O -4.84711680718826 -6.239578114882589 6.53954446087257
H -4.443895099856003 -5.568890433391933 5.9680922358066875
H -5.081532435569476 -5.751897082274328 7.34339672833518
O -3.8020160041396283 11.490096496270755 8.607349279964017
H -2.9774278938702494 11.635923397765898 8.119746654763226
H -3.8821100731554066 10.525288848048842 8.648496410374182
O -1.9391349562137485 15.002110361787683 5.4758979596327695
H -2.244305931699805 14.12917545530556 5.186376489503287
H -1.1005474623177265 15.124586735918374 5.006076187935259
O 2.9977087832195117 -3.6636337437172424 -13.391528217230578
H 3.3439004385475473 -3.1733227710402456 -14.152260656892363
H 2.046045485218289 -3.482033546695589 -13.409424584994275