194

C -5.0710522388059704 1.0783507462686561 0.47044029850746183
C -3.8153522388059704 0.1782507462686569 0.19534029850746193
C -4.11845223880597 -1.3219492537313435 0.5608402985074619
C -2.96945223880597 -2.3874492537313436 0.7034402985074619
C -2.52015223880597 0.7359507462686565 0.7384402985074618
C -2.20305223880597 0.7852507462686571 2.097440298507462
C -1.5755522388059702 1.205650746268656 -0.18965970149253808
C -0.9533522388059701 1.2695507462686564 2.508640298507462
H -2.91125223880597 0.4298507462686567 2.840840298507462
C -0.32655223880597006 1.6562507462686575 0.21554029850746192
H -1.7850522388059702 1.178550746268657 -1.2573597014925382
C 0.004447761194029898 1.6956507462686563 1.569740298507462
H -0.7158522388059702 1.2676507462686573 3.5705402985074617
H 0.3943477611940298 1.9193507462686572 -0.5551597014925382
C -1.76045223880597 -2.1592492537313435 -0.1734597014925381
C -0.5287522388059701 -1.936549253731343 0.464840298507462
C -1.8068522388059702 -2.121249253731343 -1.5681597014925381
C 0.6114477611940299 -1.614449253731343 -0.2582597014925381
H -0.4544522388059702 -1.954049253731343 1.5506402985074619
C -0.6479522388059701 -1.8270492537313432 -2.2998597014925384
H -2.74345223880597 -2.290549253731343 -2.092259701492538
C 0.5698477611940298 -1.5506492537313434 -1.6506597014925382
H 1.5072477611940298 -1.351949253731343 0.2991402985074618
H -0.7173522388059701 -1.7640492537313435 -3.3840597014925375
C 1.7791477611940298 -1.082849253731343 -2.4255597014925376
H 1.4739477611940297 -0.9102492537313429 -3.464259701492538
H 2.1252477611940295 -0.1337492537313434 -2.0010597014925384
C 1.3965477611940298 2.0964507462686566 1.997440298507462
H 1.51704776119403 1.8448507462686567 3.057640298507462
H 2.1256477611940294 1.5207507462686571 1.4165402985074618
C 3.94864776119403 -1.4275492537313434 -3.522959701492538
H 4.81734776119403 -2.087049253731343 -3.615159701492538
H 3.4305477611940303 -1.3641492537313429 -4.484459701492538
H 4.26984776119403 -0.441449253731343 -3.176459701492538
C 2.60904776119403 -3.4296492537313434 -2.8992597014925376
H 1.9825477611940296 -3.869549253731343 -2.119359701492538
H 2.06294776119403 -3.373349253731343 -3.845759701492538
H 3.5215477611940305 -4.019849253731343 -3.0234597014925377
C 3.7281477611940304 -2.060049253731343 -1.156659701492538
H 3.9048477611940298 -1.032549253731343 -0.8295597014925382
H 3.12924776119403 -2.623249253731343 -0.4404597014925382
H 4.68244776119403 -2.5769492537313434 -1.3005597014925383
C 3.1110477611940297 3.755250746268656 2.588740298507462
H 3.40124776119403 4.809350746268656 2.534540298507462
H 2.9823477611940303 3.461750746268656 3.634840298507462
H 3.86514776119403 3.1392507462686563 2.091540298507462
C 1.99744776119403 3.9574507462686572 0.40494029850746194
H 2.67914776119403 3.230350746268657 -0.04295970149253803
H 1.03214776119403 3.981150746268657 -0.10175970149253821
H 2.4399477611940297 4.958250746268657 0.368240298507462
C 0.7418477611940297 4.4992507462686575 2.475440298507462
H -0.18475223880597014 4.424250746268656 1.901240298507462
H 0.57844776119403 4.189650746268656 3.511940298507462
H 1.1210477611940297 5.524350746268658 2.4432402985074617
N 3.00114776119403 -2.025349253731343 -2.490159701492538
N 1.7831477611940298 3.586450746268657 1.862540298507462
C -3.55075223880597 -3.8435492537313434 0.6444402985074619
H -2.62515223880597 -2.2736492537313433 1.7424402985074618
H -4.67195223880597 -1.3478492537313436 1.5102402985074619
H -4.83415223880597 -1.6757492537313432 -0.1945597014925382
H -3.7169522388059697 0.17335074626865676 -0.900559701492538
H -3.9132522388059705 -4.043149253731343 -0.34225970149253815
H -4.35435223880597 -3.9354492537313432 1.3449402985074619
H -2.78115223880597 -4.545049253731343 0.8904402985074619
H -5.24235223880597 1.138950746268657 1.5249402985074618
H -5.92805223880597 0.6501507462686567 -0.006059701492538094
H -4.89895223880597 2.059650746268657 0.08004029850746197
C -1.5549237187219576 1.7464525154060047 -3.4493771927797585
O -2.263728178158047 2.582198674735538 -3.9887287423737563
O -1.8299710975514718 0.5466343942967147 -3.333545937253509
O -0.45287593109638624 1.9711818902113776 -2.9359224564210704
O -4.469057834535143 10.221446118784597 -3.2339005543885317
H -4.98187467222483 9.601099933660642 -3.773490082163214
H -4.837492686571897 10.117347270042098 -2.343742628065825
O 9.017618705170483 -2.64229330412132 3.854014850317286
H 8.175228449929211 -3.092287867843883 4.0178773151916065
H 9.637849143841391 -3.3647824780612106 3.6743330738741924
O 8.458825163102501 -3.3998273583597522 1.0525028630476903
H 8.66939892922145 -4.3329602696127045 0.897942144043562
H 8.984408295827066 -2.928253715565868 0.3889196999719984
O -6.70676219690141 -3.149410685454767 2.596874657198908
H -7.4223463003932455 -2.5974039889793037 2.9464391788197855
H -7.071455023246033 -4.046897450832393 2.618751418494284
O 4.142569876766544 -1.939497442920802 8.160246481264391
H 4.730193682522263 -1.9359595730317016 7.389757608349399
H 4.319151617252957 -2.7921721280280325 8.585366128662715
O 2.183667941893752 -5.928806745941068 2.2767234582780684
H 2.1906415329082294 -5.895090574015719 1.3083320365486812
H 2.4747999174080797 -5.044014411826751 2.543831381458313
O -1.1272333556306822 1.5161935971605056 5.956628807851596
H -1.9417706221784075 1.5386995164142359 5.432234031081742
H -0.7612287734616068 2.4080745033979896 5.858899389454454
O 6.52744332241618 -6.040878563427012 -7.184747827021039
H 6.777495305779638 -6.976815426729619 -7.163217605766305
H 5.959618761106699 -5.9323663187916305 -6.4070831790924565
O -6.337914392378032 4.214239690835899 -3.2233155497171753
H -6.192903688159234 3.2579539711012466 -3.1645203560909216
H -5.76802080709919 4.492791081357452 -3.9558402036343905
O 5.071264359302552 11.303708438243996 -4.5605560506605896
H 4.208358319668824 11.10220174731353 -4.168439260438737
H 5.494821479613084 10.437017889411782 -4.6522555746460785
O 7.366509763137874 -0.9417676660801773 7.683470942399538
H 7.3709797940213955 -1.1389591604492528 6.734754498844145
H 7.520631725763764 0.014013031724063651 7.7246002827927525
O -0.37190229174669925 -4.313351265058676 -9.637676122018284
H 0.09332223304917017 -5.020406219697151 -10.109488361738325
H -0.9075057130735635 -4.783229850666533 -8.980937944241084
O 5.37111893371744 -0.13675813068270548 -7.685650922131796
H 4.967135244305677 -0.12247840006409927 -8.566310121188229
H 5.370537558057289 -1.0749001373043012 -7.443058297111278
O 4.260872684155206 3.6313965363096004 5.855894009355853
H 4.239000386503993 3.207552911443614 6.72701141886844
H 3.327148427161763 3.7832073265655035 5.645954874928943
O 2.480982447253939 0.9041823286005197 -8.121684876286992
H 2.17298921144205 1.0552626349228644 -7.21543862684059
H 1.6686782446120745 0.7222219900905168 -8.617683124146486
O 6.197923687512561 -5.720379019207437 5.6809439348016655
H 5.7068105408167975 -5.704597955989053 4.845763599732477
H 7.126850021614284 -5.689952464112251 5.4068417004850255
O -3.2257697736308026 -1.9019257319148535 -8.091973761766727
H -2.4096058663129716 -2.1586284651178342 -8.5468886329875
H -3.3263753489514025 -2.5697273763631236 -7.3970770599565965
O 9.483630193918831 3.9179078084155172 -0.5759990448998835
H 8.604222151450717 3.880968955054572 -0.9812697850906584
H 9.411039610022474 3.3345554940029425 0.19432077744605514
O -2.3702504134242894 7.8770776458559695 2.6411674607004034
H -2.3287669881932893 8.164959331838801 1.7168457541464643
H -3.2456823479959223 7.469241776507175 2.7202293093044063
O 7.781449131898669 0.5748791682048817 -2.410720811904322
H 7.909634175202173 0.7171206657031797 -1.460824339670257
H 7.599957293374799 1.4612277041634751 -2.7577207105401578
C -7.757748580648039 -4.466933985741633 -15.64812569372063
O -7.474538308150074 -4.389979600862107 -16.80859465991466
O -8.040958853146003 -4.5438883706211595 -14.4876567275266
O -15.392316712429817 13.208000574120305 -7.97404572398912
H -16.34363140498431 13.175949217525169 -8.155540691330827
H -14.997690168513685 13.426973608938706 -8.831531960123105
O -16.564293987969823 -2.460572258853042 -12.829130926231157
H -16.527703649076166 -2.306519608252576 -13.78511015447967
H -16.653618445851194 -1.572379411491819 -12.452173963938959
O 3.955323087820194 6.629183412615146 3.8241728564718205
H 3.238927678399169 6.810444249175047 4.450981825289345
H 3.7593341016741757 7.2068571174028015 3.071282856268364
O 11.249105596382531 -9.887766196340499 12.354750816774326
H 11.565258785996644 -9.325056301989033 11.631997682989502
H 11.132751631225716 -9.274007042849286 13.095509482331494
O -4.81048971981667 -8.977762009647437 -5.663545070917488
H -4.110446204719015 -9.572360898608949 -5.354743200593718
H -4.466234191330911 -8.092189887133092 -5.473250322612584
O -0.7513830683564031 -2.057130891523971 -6.8266869072561756
H -1.5377716170097755 -1.718327747997448 -6.373064997089359
H -0.6465027689074363 -2.9539567605821153 -6.475025951681635
O 5.972080674522414 7.448763855949309 -11.417942937263708
H 5.899629491690023 8.237610180517521 -11.976010728147049
H 6.76295171088622 6.998479055982008 -11.750701929718078
O 16.290824464127567 6.925123423292831 -8.216843392352983
H 16.11151424825953 7.007677259612594 -7.268160058729876
H 17.223622127281004 7.173578246487348 -8.301227423702919
O 6.529049911443864 6.849756854566425 16.125264745232545
H 6.857252565456024 7.7553002306947345 16.01923848080002
H 5.616890410306693 6.965696161225161 16.431018021513726
O -3.4348848785977597 -12.424280669773285 -9.56407412452748
H -3.4359628498314203 -12.358301325405806 -10.530827930309936
H -4.3072757148883065 -12.09087134052778 -9.30574411808544
O 4.799124353211184 8.340008071236392 19.803822248009897
H 5.161109162100848 8.435038688768035 18.910008208757503
H 5.580625787151002 8.361273977789534 20.376330077011808
O -11.32219944512691 -3.370986689279181 -0.627104416171323
H -11.791647609442908 -2.805026444565364 0.003985735331470064
H -11.583361184073453 -4.269437683721377 -0.37502843358621407
O -8.744711238259447 -11.570065256994386 -2.1609396393686584
H -8.689830400757955 -10.83284879472615 -1.534467502449675
H -8.22266344385812 -11.271063729992836 -2.9205620004872945
O -1.6147849425889196 15.833197071903925 5.909046021828362
H -1.1326137236037739 16.46462465275896 5.35426905527519
H -1.1815635839289511 15.902310599948665 6.773050951757595
O -1.0299324504769602 9.02217332724465 13.17092299033193
H -1.434905742091499 8.89147117628307 12.300359415563895
H -0.8180784126152387 8.124391391033836 13.467684520782305
O 4.919905691400848 -10.872586962294346 -4.8345050299949355
H 4.900323810656824 -10.989865684081554 -5.796185646552474
H 4.346724792251288 -11.57905177479128 -4.500838924653423
O 9.010856942340293 15.972866996944994 -10.887052641213828
H 9.323926119263511 16.850558154880616 -10.621321049862233
H 9.650531371839826 15.68923719537679 -11.557375477022685
O -7.1949498646319086 7.1500773161598845 -12.491052089463093
H -7.7500808512696455 7.491267413176711 -11.773844823554372
H -7.809951920628592 7.042433340750986 -13.23209675072044
O -3.6038287523629555 -4.367453293677012 13.420974189721461
H -3.3534732069211377 -3.431889796355662 13.389187396137093
H -4.332232069572473 -4.436542771730809 12.78566544918626
O 17.71501103320307 -4.1013044175417415 8.41520078893688
H 18.516031880522043 -3.55842062930168 8.364111146870064
H 17.851422979189508 -4.78380157362893 7.740996548943471