194

C -5.0710522388059704 1.0783507462686561 0.47044029850746183
C -3.8153522388059704 0.1782507462686569 0.19534029850746193
C -4.11845223880597 -1.3219492537313435 0.5608402985074619
C -2.96945223880597 -2.3874492537313436 0.7034402985074619
C -2.52015223880597 0.7359507462686565 0.7384402985074618
C -2.20305223880597 0.7852507462686571 2.097440298507462
C -1.5755522388059702 1.205650746268656 -0.18965970149253808
C -0.9533522388059701 1.2695507462686564 2.508640298507462
H -2.91125223880597 0.4298507462686567 2.840840298507462
C -0.32655223880597006 1.6562507462686575 0.21554029850746192
H -1.7850522388059702 1.178550746268657 -1.2573597014925382
C 0.004447761194029898 1.6956507462686563 1.569740298507462
H -0.7158522388059702 1.2676507462686573 3.5705402985074617
H 0.3943477611940298 1.9193507462686572 -0.5551597014925382
C -1.76045223880597 -2.1592492537313435 -0.1734597014925381
C -0.5287522388059701 -1.936549253731343 0.464840298507462
C -1.8068522388059702 -2.121249253731343 -1.5681597014925381
C 0.6114477611940299 -1.614449253731343 -0.2582597014925381
H -0.4544522388059702 -1.954049253731343 1.5506402985074619
C -0.6479522388059701 -1.8270492537313432 -2.2998597014925384
H -2.74345223880597 -2.290549253731343 -2.092259701492538
C 0.5698477611940298 -1.5506492537313434 -1.6506597014925382
H 1.5072477611940298 -1.351949253731343 0.2991402985074618
H -0.7173522388059701 -1.7640492537313435 -3.3840597014925375
C 1.7791477611940298 -1.082849253731343 -2.4255597014925376
H 1.4739477611940297 -0.9102492537313429 -3.464259701492538
H 2.1252477611940295 -0.1337492537313434 -2.0010597014925384
C 1.3965477611940298 2.0964507462686566 1.997440298507462
H 1.51704776119403 1.8448507462686567 3.057640298507462
H 2.1256477611940294 1.5207507462686571 1.4165402985074618
C 3.94864776119403 -1.4275492537313434 -3.522959701492538
H 4.81734776119403 -2.087049253731343 -3.615159701492538
H 3.4305477611940303 -1.3641492537313429 -4.484459701492538
H 4.26984776119403 -0.441449253731343 -3.176459701492538
C 2.60904776119403 -3.4296492537313434 -2.8992597014925376
H 1.9825477611940296 -3.869549253731343 -2.119359701492538
H 2.06294776119403 -3.373349253731343 -3.845759701492538
H 3.5215477611940305 -4.019849253731343 -3.0234597014925377
C 3.7281477611940304 -2.060049253731343 -1.156659701492538
H 3.9048477611940298 -1.032549253731343 -0.8295597014925382
H 3.12924776119403 -2.623249253731343 -0.4404597014925382
H 4.68244776119403 -2.5769492537313434 -1.3005597014925383
C 3.1110477611940297 3.755250746268656 2.588740298507462
H 3.40124776119403 4.809350746268656 2.534540298507462
H 2.9823477611940303 3.461750746268656 3.634840298507462
H 3.86514776119403 3.1392507462686563 2.091540298507462
C 1.99744776119403 3.9574507462686572 0.40494029850746194
H 2.67914776119403 3.230350746268657 -0.04295970149253803
H 1.03214776119403 3.981150746268657 -0.10175970149253821
H 2.4399477611940297 4.958250746268657 0.368240298507462
C 0.7418477611940297 4.4992507462686575 2.475440298507462
H -0.18475223880597014 4.424250746268656 1.901240298507462
H 0.57844776119403 4.189650746268656 3.511940298507462
H 1.1210477611940297 5.524350746268658 2.4432402985074617
N 3.00114776119403 -2.025349253731343 -2.490159701492538
N 1.7831477611940298 3.586450746268657 1.862540298507462
C -3.55075223880597 -3.8435492537313434 0.6444402985074619
H -2.62515223880597 -2.2736492537313433 1.7424402985074618
H -4.67195223880597 -1.3478492537313436 1.5102402985074619
H -4.83415223880597 -1.6757492537313432 -0.1945597014925382
H -3.7169522388059697 0.17335074626865676 -0.900559701492538
H -3.9132522388059705 -4.043149253731343 -0.34225970149253815
H -4.35435223880597 -3.9354492537313432 1.3449402985074619
H -2.78115223880597 -4.545049253731343 0.8904402985074619
H -5.24235223880597 1.138950746268657 1.5249402985074618
H -5.92805223880597 0.6501507462686567 -0.006059701492538094
H -4.89895223880597 2.059650746268657 0.08004029850746197
C -0.7387924861854147 1.797210732567445 -3.629764651155997
O -1.7511777170829919 2.1941598552955544 -3.073632439513978
O -0.6299825443364229 1.5810155683921274 -4.842221459311251
O 0.3335950060283024 1.5502691332148444 -3.0661572545998883
O -5.350779933462516 3.446965064920967 7.168419451188692
H -5.4812111546572755 3.112130367711395 6.268507911657045
H -5.550775161279351 4.392456576100681 7.097640531745167
O -3.313993818075716 -5.547470912179288 -2.5654375069875344
H -2.999016691223429 -6.067277676607469 -3.3201279694385866
H -3.2890286199883088 -6.1715916511281685 -1.8246190498751604
O -6.065606916539312 1.2971921034219354 5.549970888586834
H -6.2584842714384425 0.7677478971374949 6.338294753060666
H -6.939389313909138 1.4908063396043278 5.178514573666564
O -7.134462534316728 1.7782556339943651 -5.609549839031292
H -7.23444575729204 2.12410839117131 -4.70990736428003
H -8.010663819335672 1.8988487962477367 -6.005391400326827
O -3.0010962735558375 0.7948707958026319 8.136556994503703
H -2.721537933270705 0.37652471666819465 7.30842593642783
H -2.4267268673858178 0.39461163290329193 8.806522913092865
O -4.787772921474743 -0.6841851171300108 -9.977538072818135
H -5.431365570290781 0.04017726383856335 -9.970121852251427
H -3.929725442403071 -0.23466100552390312 -10.00292588571102
O 7.217638958296508 4.379030941018521 7.4712360000601015
H 7.074282174507309 4.0371206638479435 8.366508892426868
H 6.421527746732876 4.111143380679217 6.988115789203485
O -6.97857564358689 -5.6067898075064075 2.859042064134277
H -6.054972430594139 -5.785067446765949 3.091725422347782
H -7.352953418513236 -6.485722803348245 2.696930945571444
O -3.8199552446588108 -7.702334702172904 -0.47358935920387046
H -4.229259896623673 -6.880775682155729 -0.16298054508497964
H -4.365746968379012 -7.964258925682711 -1.2302061973440979
O 7.124658533789524 7.473629594439935 0.5436232874482978
H 7.048759661696868 7.775398538196356 -0.37405978567618714
H 7.665884667393526 8.154948652235396 0.9700509578553316
O 1.8531271015377353 -11.35071657762011 1.2586545475483457
H 2.0075625829662966 -11.890537720534693 2.048407782830306
H 0.9176149307184063 -11.106138680279306 1.3215876444152128
O -4.99497443748137 -4.383554124052421 -3.072405424699317
H -5.1524283457762765 -4.91385038302862 -3.8679942012532007
H -5.176674457646582 -3.4752260066517606 -3.356811961388143
O -8.050236353582283 3.014824192893311 8.017144206057322
H -8.144296184652841 2.555987139986581 7.168858485348289
H -7.09337082690516 3.13245226443909 8.114786128105841
O -1.0206022702231354 -5.355747214003067 -6.340704030496787
H -0.20958442257468457 -4.958216037078669 -5.989724870048794
H -1.3105323694189563 -5.955829272005753 -5.637280967508685
O 2.1353088506339812 -5.102750975195268 0.4802708411501112
H 2.2051904262256192 -5.164415676530729 -0.48424011622779217
H 2.8646402370774857 -5.652846724621836 0.8034307698405603
O 3.7234556973718975 4.466809941712976 -4.447058739320556
H 2.9787331658822978 3.854946237293611 -4.347166221052488
H 3.306521501293232 5.303079592970923 -4.703536595723689
O 2.3830789503782874 1.8910349433927456 -5.403250229486195
H 2.8847291357420826 1.2596225922114352 -5.940495882051351
H 1.9803741949680362 2.484622454856316 -6.054744427852116
O 11.167507492875462 4.323392346359491 -0.8713092634966049
H 11.002212567621623 3.68681301290983 -1.5829353568982694
H 11.719008400359574 3.833796493977779 -0.24273580345010615
O 8.373686036215812 -3.3011983604640656 -1.9046774972152498
H 8.217801449822023 -3.4617324756730135 -0.9618646046013871
H 7.597972339223002 -2.7937830614226344 -2.187095483357143
O -3.4892478019687085 -0.3858982145235241 -5.27818755140391
H -4.113958947465848 -1.0124001707551242 -5.6734072882967315
H -2.7056105163175452 -0.9239427028973213 -5.090084714190176
C 5.534249935006531 11.844100199134145 10.681262478272439
O 5.172489724738081 12.016536168636224 9.553337993216633
O 5.8960101452749845 11.671664229632066 11.809186963328244
O -4.606053494830481 2.4649468843865474 9.759076435634544
H -5.177894809185811 2.000352354970495 9.129698336767856
H -5.226270243591717 2.940534100080229 10.331885242414582
O 11.070565465218408 14.721339302015192 -0.9085267847276135
H 11.104936801201603 14.621766152796116 0.054733904866500094
H 10.47366669446085 15.47236253842758 -1.045047479630529
O 10.767605444418228 9.061495999611175 -12.355680261550829
H 10.854088322575146 8.887713295852677 -13.305041963200987
H 9.832330453777812 9.28877782402812 -12.2435838366646
O -18.835359836503045 4.835429163808144 -7.102857836665892
H -19.034320857922797 5.113612202335997 -6.196217849719022
H -18.35259312718582 5.587317616688531 -7.477773831390251
O -9.959000068526944 2.6252385494580555 1.659105685853325
H -9.124628643551567 2.248393275257558 1.976563275772536
H -10.635871216584286 2.035046330762294 2.0230844465228275
O -3.016906350467317 17.92825898626543 -2.974654704423255
H -3.003743727742183 17.87247823785282 -3.9419615897339746
H -2.927522153208817 17.007616997244824 -2.6858801597822186
O -11.240416643974132 -20.115786104071443 -6.2124360145673405
H -11.169010752715291 -19.63213608073559 -5.375805145832049
H -12.03458862297768 -19.74800485186683 -6.628356394679203
O -9.994244410852325 -10.846340062511388 4.626990820661451
H -10.80502192823764 -11.25277309550819 4.968193639951575
H -10.112006047897655 -9.90165649692997 4.807731247962002
O 6.093449371458021 -17.707708933364902 6.366292267771284
H 6.539123344949585 -17.79355073981324 7.222430837465424
H 6.137261791535603 -16.759053809802836 6.17368937919902
O 9.531582458485753 5.76511560859023 8.670688708131577
H 10.390794332398865 5.319530883575454 8.62403503238975
H 9.591780675583971 6.3062709461026305 9.472242835836024
O 3.9029446047806604 14.61246928997342 -8.136773079354516
H 4.214401878327612 14.637843368055574 -9.054006898953523
H 4.3985521338593365 15.322356438845246 -7.701577310433037
O -15.955542985917479 3.2546660163987684 -14.351096658312084
H -16.240100547597322 2.328477285981315 -14.364088449509861
H -15.090030514694813 3.227528017631702 -13.916224682345643
O -0.2550367606733901 0.5657564285326675 10.183588794276979
H 0.4608974957349967 0.061541233863470435 9.768652010096934
H -0.3302866436758327 0.17987948543978316 11.069251475097056
O -7.012672575198345 -5.655841995370933 6.035909168725455
H -7.2025513170269315 -5.687186586757109 5.086208722851901
H -6.248157368898548 -6.241836780219151 6.141211380321746
O 9.075940369439977 -4.503165101199958 3.2150814346890657
H 8.561263812169301 -3.9343171618800654 3.8071012149561763
H 9.196838433363418 -3.9640241387453714 2.419045866989288
O -16.14838900607524 -8.067192360843318 7.6624825005736374
H -16.401750408415296 -7.604127440571032 6.849865594327216
H -15.326346612314477 -7.631587412022399 7.933511236546036
O 15.889223630493962 3.2526003824023557 11.326654462926204
H 15.041541134127826 3.6949828509086187 11.483815188976887
H 16.2571386578159 3.1294557999223036 12.21459358740294
O 1.833370391326281 -9.921165433382576 -10.725083726245401
H 1.942219313495225 -9.904395525935602 -11.687808006217024
H 2.7111394979479435 -9.689529604348987 -10.386220652912632
O -11.479316670783705 10.222801841200802 1.4906070700847016
H -11.440298835130594 10.675178380131564 0.634569435149196
H -12.281916036755824 9.682848369575332 1.4336294383266712
O -2.5570545164332796 -11.79946634666652 -7.841183007079789
H -2.435605737892924 -11.067231993632555 -7.21824608946454
H -1.6556402338085918 -12.107171443169443 -8.019317251306846