194

C -5.0710522388059704 1.0783507462686561 0.47044029850746183
C -3.8153522388059704 0.1782507462686569 0.19534029850746193
C -4.11845223880597 -1.3219492537313435 0.5608402985074619
C -2.96945223880597 -2.3874492537313436 0.7034402985074619
C -2.52015223880597 0.7359507462686565 0.7384402985074618
C -2.20305223880597 0.7852507462686571 2.097440298507462
C -1.5755522388059702 1.205650746268656 -0.18965970149253808
C -0.9533522388059701 1.2695507462686564 2.508640298507462
H -2.91125223880597 0.4298507462686567 2.840840298507462
C -0.32655223880597006 1.6562507462686575 0.21554029850746192
H -1.7850522388059702 1.178550746268657 -1.2573597014925382
C 0.004447761194029898 1.6956507462686563 1.569740298507462
H -0.7158522388059702 1.2676507462686573 3.5705402985074617
H 0.3943477611940298 1.9193507462686572 -0.5551597014925382
C -1.76045223880597 -2.1592492537313435 -0.1734597014925381
C -0.5287522388059701 -1.936549253731343 0.464840298507462
C -1.8068522388059702 -2.121249253731343 -1.5681597014925381
C 0.6114477611940299 -1.614449253731343 -0.2582597014925381
H -0.4544522388059702 -1.954049253731343 1.5506402985074619
C -0.6479522388059701 -1.8270492537313432 -2.2998597014925384
H -2.74345223880597 -2.290549253731343 -2.092259701492538
C 0.5698477611940298 -1.5506492537313434 -1.6506597014925382
H 1.5072477611940298 -1.351949253731343 0.2991402985074618
H -0.7173522388059701 -1.7640492537313435 -3.3840597014925375
C 1.7791477611940298 -1.082849253731343 -2.4255597014925376
H 1.4739477611940297 -0.9102492537313429 -3.464259701492538
H 2.1252477611940295 -0.1337492537313434 -2.0010597014925384
C 1.3965477611940298 2.0964507462686566 1.997440298507462
H 1.51704776119403 1.8448507462686567 3.057640298507462
H 2.1256477611940294 1.5207507462686571 1.4165402985074618
C 3.94864776119403 -1.4275492537313434 -3.522959701492538
H 4.81734776119403 -2.087049253731343 -3.615159701492538
H 3.4305477611940303 -1.3641492537313429 -4.484459701492538
H 4.26984776119403 -0.441449253731343 -3.176459701492538
C 2.60904776119403 -3.4296492537313434 -2.8992597014925376
H 1.9825477611940296 -3.869549253731343 -2.119359701492538
H 2.06294776119403 -3.373349253731343 -3.845759701492538
H 3.5215477611940305 -4.019849253731343 -3.0234597014925377
C 3.7281477611940304 -2.060049253731343 -1.156659701492538
H 3.9048477611940298 -1.032549253731343 -0.8295597014925382
H 3.12924776119403 -2.623249253731343 -0.4404597014925382
H 4.68244776119403 -2.5769492537313434 -1.3005597014925383
C 3.1110477611940297 3.755250746268656 2.588740298507462
H 3.40124776119403 4.809350746268656 2.534540298507462
H 2.9823477611940303 3.461750746268656 3.634840298507462
H 3.86514776119403 3.1392507462686563 2.091540298507462
C 1.99744776119403 3.9574507462686572 0.40494029850746194
H 2.67914776119403 3.230350746268657 -0.04295970149253803
H 1.03214776119403 3.981150746268657 -0.10175970149253821
H 2.4399477611940297 4.958250746268657 0.368240298507462
C 0.7418477611940297 4.4992507462686575 2.475440298507462
H -0.18475223880597014 4.424250746268656 1.901240298507462
H 0.57844776119403 4.189650746268656 3.511940298507462
H 1.1210477611940297 5.524350746268658 2.4432402985074617
N 3.00114776119403 -2.025349253731343 -2.490159701492538
N 1.7831477611940298 3.586450746268657 1.862540298507462
C -3.55075223880597 -3.8435492537313434 0.6444402985074619
H -2.62515223880597 -2.2736492537313433 1.7424402985074618
H -4.67195223880597 -1.3478492537313436 1.5102402985074619
H -4.83415223880597 -1.6757492537313432 -0.1945597014925382
H -3.7169522388059697 0.17335074626865676 -0.900559701492538
H -3.9132522388059705 -4.043149253731343 -0.34225970149253815
H -4.35435223880597 -3.9354492537313432 1.3449402985074619
H -2.78115223880597 -4.545049253731343 0.8904402985074619
H -5.24235223880597 1.138950746268657 1.5249402985074618
H -5.92805223880597 0.6501507462686567 -0.006059701492538094
H -4.89895223880597 2.059650746268657 0.08004029850746197
C 3.361498114298586 -0.8623804786255005 3.163991547923912
O 2.670162897950365 -0.7010989657777285 4.157882583626665
O 3.3108465626150902 -0.170151343694112 2.1408177067980767
O 4.218764711679686 -1.742794295084896 3.027558864148971
O -6.838898639386139 -8.035189417246817 -1.044921645776178
H -7.156744737484309 -7.985756993639224 -0.13086604007155234
H -6.188281301745057 -8.753083696104772 -1.0279856296021086
O -9.414481972432773 5.691690732083723 -0.7437857785422293
H -9.43854355709559 5.990064888908484 0.17782219645724373
H -10.062384210321648 6.25746899597435 -1.1899691383255127
O 0.9399485500489879 5.534164917323482 -7.226349945934293
H 0.34380549466022314 6.105102533782141 -7.733903935697208
H 0.36820174503759917 5.141455436138116 -6.549706170638614
O -1.5985079509825062 -6.033383650227243 -5.246047293896051
H -1.7158219377125388 -5.421468221083764 -5.988182249947616
H -1.6958280616864774 -5.472048527926233 -4.462214645415601
O 5.3487375200031835 5.939407807374514 -0.37182431754788414
H 5.582373257170361 5.61249083414915 0.5099392515768089
H 5.051379701970049 6.8479472633551195 -0.2134061074802358
O 2.6141385451512957 -1.0198886379851713 -9.047562746370287
H 1.72025787143687 -1.327634678766621 -8.83487266093331
H 3.0938654406667174 -1.8313675070455897 -9.271897529869323
O -7.163379671724765 4.32522723203411 -4.5346039025809155
H -7.871769195109162 4.590001458757876 -3.928760483105175
H -6.398132039372442 4.841398181159323 -4.2397724986254675
O -1.2121502732337555 3.425297840256307 -5.193519478216346
H -1.507383208264668 3.293638611229014 -6.10701316641839
H -0.24675819651153486 3.470528755458221 -5.263763672367561
O 9.706212892121037 0.6917381765377253 -3.757414146890751
H 10.573618716716558 0.7888229241615279 -3.336523372298828
H 9.861719842742032 0.9538865526600451 -4.67722812890287
O -3.628825637754574 -7.29725252539156 -3.473967216514769
H -3.6482022817767246 -7.661977987348127 -4.371501193569125
H -4.483418042775504 -7.556107646989703 -3.0976325362062003
O -7.408515822888677 -1.9694861796478844 1.1575501314537329
H -6.796748246306886 -2.702094735326741 1.324859704668726
H -8.025124855742689 -2.0042799314869724 1.9042392499868728
O -6.169685045938218 0.853566145103708 -8.693156087012946
H -6.08750793701657 1.3473979776769212 -7.863490852833122
H -6.016867580512329 -0.06740012483069768 -8.433483415744071
O 5.755055510194331 6.5718513550106135 7.598105728329363
H 5.596431772718316 6.79813034990777 6.66934112775639
H 5.349888733096059 5.6973609334448785 7.698446794825501
O 5.324386567324715 -8.658727302676764 -1.529828093681285
H 5.193116590579066 -8.493192645258043 -0.5841358460137549
H 4.903154087304126 -7.899996737863644 -1.96093489262334
O -4.640815953276739 -1.468740256033919 6.842397301489343
H -4.514644920544498 -1.9346234572637369 7.682635999843052
H -5.350155472654383 -0.8357878550686868 7.02993569398923
O 6.3150775891450195 3.967537588461487 4.793561516298153
H 5.991906841195718 4.236505667305889 3.9205299033925036
H 5.608916613981563 4.239870395355464 5.398651149117495
O -2.148328808356787 9.7003099862843 4.6298071577358195
H -2.4007974865107653 9.928000161058812 5.537212308571067
H -2.18730691676228 10.545235353396524 4.1570029959781225
O 0.7981512224296534 5.0785577591718045 -2.666586556417716
H 0.5476625907272379 5.588225608319053 -3.4517371698884487
H 0.05453281655009312 4.471462298549475 -2.5345687075149925
O -7.2118332727908285 3.9280127961763585 5.341806292680379
H -7.438550957738529 4.108617678456995 4.417172135443932
H -6.305717240040873 3.587380709982102 5.298384393269712
O 0.26776489311797036 -3.2733041892717356 9.5985592562888
H -0.4389572522824632 -3.746129153015003 10.063261009848853
H 0.45797945695226927 -2.5151192084885823 10.171216133415214
C 9.421831841190956 -4.404094738939762 6.695747477822274
O 9.184256239712319 -5.228813756227519 7.530142248542933
O 9.659407442669595 -3.5793757216520055 5.861352707101616
O 0.34348621549974 8.626329577600911 6.310503946200635
H 0.8589646277513895 9.043737265363024 7.016917554223304
H 0.5444200404783919 7.682664443898812 6.4004131098851405
O 1.9441371256485516 0.15248100917218976 14.626868377355917
H 1.8143957727665114 -0.33225365215147407 15.455823651398958
H 2.5329784336409933 0.8819610808887173 14.871994229256938
O -4.842841471168504 -1.4893121940882483 -14.277394270558675
H -4.008858349467477 -1.446776970917286 -13.785835256392922
H -5.269128675610358 -0.6397405633276095 -14.089061565390779
O -5.3197577262177855 -4.928453192927175 8.623771700525428
H -5.280703275635807 -4.830227281851446 9.586992224176726
H -6.121209833561686 -4.4457173453775845 8.371576210033234
O 0.9836307149418504 0.1822356690410647 20.518927821100448
H 0.37074507651991606 -0.33741657692306415 21.06049969479827
H 0.5185011366898622 1.0205689102804456 20.37816633358273
O -12.090551968938646 8.299655879930974 -5.976626432285933
H -11.826638960482228 8.090540153967702 -6.885245105890178
H -12.788293186043061 8.963666985363494 -6.082496116879456
O 11.944026567437087 -13.916917374453005 -6.957355697316532
H 11.889141324391025 -13.522907159652162 -6.073777224497979
H 12.021994653016845 -13.153844646945291 -7.54947302898735
O -10.654889276975748 -11.75480224791703 -4.455676913526124
H -10.357651574913307 -11.553931991000006 -3.5555279007183946
H -10.42608928956561 -10.959998495494794 -4.960552645956046
O 2.0021905501031725 -3.7654200187651368 7.067838181981209
H 2.3905863912689567 -3.00711691619885 6.60621882352289
H 1.1025514818452773 -3.8203233003921966 6.712033290459682
O 17.09879573184311 -0.3627197108286264 -11.921918906593486
H 17.028725023001563 -0.3235100482959137 -12.887589686428164
H 16.9926911883003 0.5588618311817726 -11.641934564950418
O 9.86172111420187 15.23780713100987 -11.521506642817776
H 10.378831833185503 14.4639390717203 -11.251891939910786
H 9.082903976104848 15.211119196268891 -10.94557820642518
O -5.520262359078935 -7.257346226146931 3.230185865252691
H -4.883406189620663 -7.88856501482371 3.5975336801969977
H -4.97423097355695 -6.502936466719685 2.9624591665357607
O -3.3957730664828047 -9.374528061267352 19.038052606804058
H -2.56975814978233 -8.90192946984752 18.85552237457854
H -3.7250709913103917 -9.618062451303008 18.159863662513477
O 16.702266244455636 -7.174935655965638 -7.463232908647242
H 16.887750429307026 -7.475893635041609 -8.36544533867718
H 16.38479388698032 -6.2668967990796185 -7.580017671883698
O -0.6276818743562735 -10.83403316305812 3.482699006470778
H -1.0656399420036307 -11.161893287187484 4.2824913713308534
H 0.29990362477289434 -10.738556066174437 3.746197033172979
O -15.231010976742915 4.214542858147246 4.358458206731054
H -14.603272622439885 4.637414180865201 3.753403035808854
H -14.667000316748824 3.797443976942467 5.02695087162032
O 11.831796840907517 3.945132758276557 -15.830745482079335
H 11.796861160972329 3.748638736249803 -14.882517158058576
H 10.997665505379846 4.406432142260102 -16.005072008251414
O -11.399599098465295 -16.571326754088282 3.7806474075416783
H -11.38770085174193 -16.740666356802762 2.8266296469221945
H -12.295769221152984 -16.243461591266243 3.9490085981694647
O 5.6958368218756394 -0.602850155620779 12.131482709809688
H 5.456871560903888 -0.9864067386059978 12.988656734496278
H 4.993365014145348 0.04210576353563544 11.959648004382519
O -4.441655141369661 0.4201604280722844 -22.998628429462286
H -3.881162429923596 0.7196588271057056 -23.730144653678988
H -3.882429848460432 0.530342680585818 -22.21499019194345