194

C -5.0710522388059704 1.0783507462686561 0.47044029850746183
C -3.8153522388059704 0.1782507462686569 0.19534029850746193
C -4.11845223880597 -1.3219492537313435 0.5608402985074619
C -2.96945223880597 -2.3874492537313436 0.7034402985074619
C -2.52015223880597 0.7359507462686565 0.7384402985074618
C -2.20305223880597 0.7852507462686571 2.097440298507462
C -1.5755522388059702 1.205650746268656 -0.18965970149253808
C -0.9533522388059701 1.2695507462686564 2.508640298507462
H -2.91125223880597 0.4298507462686567 2.840840298507462
C -0.32655223880597006 1.6562507462686575 0.21554029850746192
H -1.7850522388059702 1.178550746268657 -1.2573597014925382
C 0.004447761194029898 1.6956507462686563 1.569740298507462
H -0.7158522388059702 1.2676507462686573 3.5705402985074617
H 0.3943477611940298 1.9193507462686572 -0.5551597014925382
C -1.76045223880597 -2.1592492537313435 -0.1734597014925381
C -0.5287522388059701 -1.936549253731343 0.464840298507462
C -1.8068522388059702 -2.121249253731343 -1.5681597014925381
C 0.6114477611940299 -1.614449253731343 -0.2582597014925381
H -0.4544522388059702 -1.954049253731343 1.5506402985074619
C -0.6479522388059701 -1.8270492537313432 -2.2998597014925384
H -2.74345223880597 -2.290549253731343 -2.092259701492538
C 0.5698477611940298 -1.5506492537313434 -1.6506597014925382
H 1.5072477611940298 -1.351949253731343 0.2991402985074618
H -0.7173522388059701 -1.7640492537313435 -3.3840597014925375
C 1.7791477611940298 -1.082849253731343 -2.4255597014925376
H 1.4739477611940297 -0.9102492537313429 -3.464259701492538
H 2.1252477611940295 -0.1337492537313434 -2.0010597014925384
C 1.3965477611940298 2.0964507462686566 1.997440298507462
H 1.51704776119403 1.8448507462686567 3.057640298507462
H 2.1256477611940294 1.5207507462686571 1.4165402985074618
C 3.94864776119403 -1.4275492537313434 -3.522959701492538
H 4.81734776119403 -2.087049253731343 -3.615159701492538
H 3.4305477611940303 -1.3641492537313429 -4.484459701492538
H 4.26984776119403 -0.441449253731343 -3.176459701492538
C 2.60904776119403 -3.4296492537313434 -2.8992597014925376
H 1.9825477611940296 -3.869549253731343 -2.119359701492538
H 2.06294776119403 -3.373349253731343 -3.845759701492538
H 3.5215477611940305 -4.019849253731343 -3.0234597014925377
C 3.7281477611940304 -2.060049253731343 -1.156659701492538
H 3.9048477611940298 -1.032549253731343 -0.8295597014925382
H 3.12924776119403 -2.623249253731343 -0.4404597014925382
H 4.68244776119403 -2.5769492537313434 -1.3005597014925383
C 3.1110477611940297 3.755250746268656 2.588740298507462
H 3.40124776119403 4.809350746268656 2.534540298507462
H 2.9823477611940303 3.461750746268656 3.634840298507462
H 3.86514776119403 3.1392507462686563 2.091540298507462
C 1.99744776119403 3.9574507462686572 0.40494029850746194
H 2.67914776119403 3.230350746268657 -0.04295970149253803
H 1.03214776119403 3.981150746268657 -0.10175970149253821
H 2.4399477611940297 4.958250746268657 0.368240298507462
C 0.7418477611940297 4.4992507462686575 2.475440298507462
H -0.18475223880597014 4.424250746268656 1.901240298507462
H 0.57844776119403 4.189650746268656 3.511940298507462
H 1.1210477611940297 5.524350746268658 2.4432402985074617
N 3.00114776119403 -2.025349253731343 -2.490159701492538
N 1.7831477611940298 3.586450746268657 1.862540298507462
C -3.55075223880597 -3.8435492537313434 0.6444402985074619
H -2.62515223880597 -2.2736492537313433 1.7424402985074618
H -4.67195223880597 -1.3478492537313436 1.5102402985074619
H -4.83415223880597 -1.6757492537313432 -0.1945597014925382
H -3.7169522388059697 0.17335074626865676 -0.900559701492538
H -3.9132522388059705 -4.043149253731343 -0.34225970149253815
H -4.35435223880597 -3.9354492537313432 1.3449402985074619
H -2.78115223880597 -4.545049253731343 0.8904402985074619
H -5.24235223880597 1.138950746268657 1.5249402985074618
H -5.92805223880597 0.6501507462686567 -0.006059701492538094
H -4.89895223880597 2.059650746268657 0.08004029850746197
C 1.8476139186393736 -4.5100579167217685 1.7620577666883137
O 2.625283666968063 -4.166255353685454 0.8852424732632658
O 2.1646149125532634 -5.0811796707940395 2.8118014382496233
O 0.6232634537285608 -4.340059274839995 1.7353222990277422
O 4.711360259958279 6.223702391257618 -6.013724680200381
H 4.398289940731518 5.807094035263515 -6.830665198130021
H 5.622417371020706 5.906259428431743 -5.923354054248619
O -5.165863056941351 -3.4058485340072173 -8.616429236656403
H -5.266854303282623 -2.788869747320539 -7.876087895219178
H -4.80638993513304 -2.8580055784748204 -9.330298352861128
O 5.26827890676955 10.160684900741597 4.46159588693402
H 4.763270961688895 9.458708831207336 4.898818862207104
H 4.674411345781484 10.925998075546383 4.4856584881297525
O 0.9386320877067186 -0.7881895682106821 -9.044836749501654
H 1.7938512665875048 -0.79334011935926 -9.500403412897189
H 0.3788761262101946 -1.3600077935476453 -9.591333890428835
O -8.232062278203022 1.2534324851289886 0.7504637252978945
H -8.450695793488283 1.8928025097590129 0.05593315397751453
H -9.091863815140883 0.8958657293644259 1.0185108788946051
O -1.2457587282628704 3.9982476158335096 -6.348183940578306
H -0.6206932780579915 3.325389552103429 -6.657251192052123
H -1.0669445419452936 4.065060885642292 -5.398171615369289
O -3.095965610365769 -1.3057611512690372 4.773016820828678
H -3.724959439631464 -1.4812212593396064 5.488941307154956
H -3.1283813933429645 -2.10836239885762 4.231036748609021
O -1.59703836763616 -4.520217600048047 -4.494292615880539
H -1.8698231777039465 -4.72648262119112 -5.400940588000442
H -1.7133510910623428 -3.560546822849188 -4.427469760062192
O 4.44400840000547 -3.0373145743080157 3.414882282112818
H 4.53068864922033 -3.1837675873656415 2.4609402470486357
H 3.5609485646526853 -2.6506176519782882 3.5130289160205983
O 4.851433402997859 1.1250392508906035 4.439433759337245
H 5.081345133158791 1.2266826637193595 3.503604410650782
H 5.620112069916184 0.6757473187268869 4.821836441097273
O -3.7405749997589575 1.4140926515361962 7.416661791356049
H -4.336004363778272 2.1785728157109787 7.415518136315136
H -3.3595740135028542 1.412833306206445 6.525708028907506
O 3.257084417137649 7.779936331080521 1.0514101327662684
H 2.9504742038469156 7.457476277272212 0.19060989594952904
H 2.7873409585862 7.223467717472261 1.6906641585784041
O -2.593202465537927 -2.691693303760318 -7.159870083634968
H -2.2387470650766392 -1.8827124421043295 -7.558465983586489
H -3.487365968622159 -2.443021140774251 -6.881309983462733
O -6.228110933638932 2.5959397116773895 4.685342679918722
H -5.904274518757219 2.892769741474958 3.821635978134526
H -6.153003292787597 1.6307232323065946 4.644380080675097
O 0.24516886635153057 2.4140069105549866 8.701846605524358
H -0.41937116541272745 2.0300483337200284 8.110298032406618
H 1.0331769491037055 1.870067425493812 8.553068104360298
O 6.208520280730103 2.884895917558992 -8.719015021888973
H 6.066800103506879 3.3858467495058946 -9.536285486447387
H 6.395453652922684 1.984878960005422 -9.025588560826574
O 7.575755567976006 -0.5985709885456783 2.4415879728699315
H 7.572498416887962 -0.7997760475565263 1.4937096726144437
H 7.29858136630546 -1.4284834095719823 2.857979350848094
O 4.766439302565669 -5.378024754392641 8.960972655506865
H 5.1557465304298775 -4.891054456125437 8.219172704146501
H 3.8193042751052517 -5.397035600794949 8.757169388171373
O 1.2207235626229034 -9.785608829101598 -3.3533215340580176
H 1.1573908887582505 -9.72997740176295 -4.318651256802231
H 2.1338809078595666 -9.523043016230893 -3.1631510814322823
O 2.8414786693766882 4.749110903737762 -2.3727149173020123
H 2.624735498309373 5.345091258301762 -1.6400504841066683
H 2.2584739255272304 3.98743671758268 -2.235165482210403
C -0.8011081811114846 -11.897549545339608 -9.581572965768489
O -0.7468525010488416 -12.356976031134518 -10.685566572014052
O -0.8553638611741268 -11.438123059544695 -8.47757935952293
O -5.662842235979949 11.950332795510429 -16.72637025887348
H -6.546116757555973 11.689781185936045 -16.424863484185337
H -5.831019871995363 12.682055424660142 -17.33895512730764
O 11.497706248795948 -8.5697486790276 4.377906281699939
H 11.53089248677508 -8.489668551391587 3.412788048701207
H 12.429441841022395 -8.594699866952986 4.642874522626182
O 0.27222438318470665 12.030679925337612 19.840714685613587
H -0.34927391133935215 12.250086130905018 19.130385083413177
H 0.9387996328857979 12.732401980490348 19.79353907646912
O 13.958291360279937 6.514567734393439 6.546176060788885
H 14.360857965693375 5.791550279609614 6.042039923238895
H 13.527735968327578 6.069037065122974 7.291217282131811
O 6.748563960648486 -2.686791747201622 7.407510562002828
H 5.979883339620764 -2.480705585801684 6.854676089637115
H 6.439463230133079 -2.518407608881557 8.310320323058308
O -1.506675296809632 -5.892776552910194 -8.956599737852523
H -1.60940429139468 -6.460810248439437 -9.734900342577289
H -2.3526677832490503 -5.424243506003686 -8.895481482440957
O -6.3552323438434195 12.029824114470124 6.958199368178813
H -5.977190078171291 12.83975390945561 7.332452129638573
H -7.164135663659929 11.889511398600124 7.47293202233533
O 4.277211614123256 -16.32534800720082 -2.8603795905038805
H 4.586907083294826 -16.52691236502192 -3.7561629811351027
H 3.835471905680355 -17.139795392914404 -2.5766483264720725
O 12.19211069281771 -5.236238924324497 -1.8099420611666548
H 11.298496883007061 -4.8641207332039755 -1.8540982346069697
H 12.136762320889734 -6.042149744522976 -2.3451114286681354
O 0.6653522256252327 -15.229288117764362 4.8579345396942575
H 1.1291182495626595 -15.595334361445861 4.0898859869139415
H 0.0037291011420679254 -14.636330692356339 4.471129321137654
O 2.247539004602539 -17.285101670904623 14.18381989448746
H 2.0937452183448153 -17.200515234298035 13.230845622562601
H 2.9194425140379705 -16.613011734675712 14.373036003548421
O -17.52991383051412 2.9370399850196867 -1.8315481714812956
H -17.282293217604977 2.868458543170231 -2.7658650207333855
H -16.768589902888223 3.371907187907599 -1.4189486836280976
O 10.219331576724173 6.698474951294196 8.52633959769159
H 9.985010301613478 6.738703590040117 9.465723732939333
H 10.263536283419947 7.627985848018559 8.256122312758492
O 0.326573641541259 21.912910548802046 -2.382431339373352
H 0.004554554950775724 21.475638108459343 -3.1849672436718244
H 1.2399796651234283 22.15426617945382 -2.597835238912081
O -2.7230705531712336 6.789701299797831 10.839860139255476
H -2.4485461599466842 6.44960694591728 11.704695120557266
H -3.3299027500998615 6.112954090901944 10.504107485770206
O -0.5255539184740563 12.910667799710495 -6.476587696794729
H 0.4276835798356031 12.736598992273164 -6.478970760723469
H -0.9246134166340156 12.028934867650513 -6.5241323889193525
O -3.7131648218878874 4.775964184082766 20.270854560209443
H -3.347343956432066 5.3204617605039335 20.98406199186494
H -4.653171031174644 5.01074570232856 20.25575788863776
O -6.513036597113047 -0.6373155291874566 -6.4337346347903095
H -5.588363270450405 -0.3483990713892995 -6.455503334154538
H -7.0009188122724835 0.15868220018947143 -6.174272685252629
O -16.81938293959637 -3.574158191945278 -2.0776033227759125
H -17.386829006784453 -2.921473585345465 -2.514610327342683
H -16.118580981775402 -3.7455047464693036 -2.7245027882781256
O 16.327571180901693 -4.987429712859322 4.643680545485548
H 16.29742525022935 -5.162963697511183 3.6911857161052843
H 16.09214205836192 -5.8370299036235656 5.045818069740018