194

C -5.0710522388059704 1.0783507462686561 0.47044029850746183
C -3.8153522388059704 0.1782507462686569 0.19534029850746193
C -4.11845223880597 -1.3219492537313435 0.5608402985074619
C -2.96945223880597 -2.3874492537313436 0.7034402985074619
C -2.52015223880597 0.7359507462686565 0.7384402985074618
C -2.20305223880597 0.7852507462686571 2.097440298507462
C -1.5755522388059702 1.205650746268656 -0.18965970149253808
C -0.9533522388059701 1.2695507462686564 2.508640298507462
H -2.91125223880597 0.4298507462686567 2.840840298507462
C -0.32655223880597006 1.6562507462686575 0.21554029850746192
H -1.7850522388059702 1.178550746268657 -1.2573597014925382
C 0.004447761194029898 1.6956507462686563 1.569740298507462
H -0.7158522388059702 1.2676507462686573 3.5705402985074617
H 0.3943477611940298 1.9193507462686572 -0.5551597014925382
C -1.76045223880597 -2.1592492537313435 -0.1734597014925381
C -0.5287522388059701 -1.936549253731343 0.464840298507462
C -1.8068522388059702 -2.121249253731343 -1.5681597014925381
C 0.6114477611940299 -1.614449253731343 -0.2582597014925381
H -0.4544522388059702 -1.954049253731343 1.5506402985074619
C -0.6479522388059701 -1.8270492537313432 -2.2998597014925384
H -2.74345223880597 -2.290549253731343 -2.092259701492538
C 0.5698477611940298 -1.5506492537313434 -1.6506597014925382
H 1.5072477611940298 -1.351949253731343 0.2991402985074618
H -0.7173522388059701 -1.7640492537313435 -3.3840597014925375
C 1.7791477611940298 -1.082849253731343 -2.4255597014925376
H 1.4739477611940297 -0.9102492537313429 -3.464259701492538
H 2.1252477611940295 -0.1337492537313434 -2.0010597014925384
C 1.3965477611940298 2.0964507462686566 1.997440298507462
H 1.51704776119403 1.8448507462686567 3.057640298507462
H 2.1256477611940294 1.5207507462686571 1.4165402985074618
C 3.94864776119403 -1.4275492537313434 -3.522959701492538
H 4.81734776119403 -2.087049253731343 -3.615159701492538
H 3.4305477611940303 -1.3641492537313429 -4.484459701492538
H 4.26984776119403 -0.441449253731343 -3.176459701492538
C 2.60904776119403 -3.4296492537313434 -2.8992597014925376
H 1.9825477611940296 -3.869549253731343 -2.119359701492538
H 2.06294776119403 -3.373349253731343 -3.845759701492538
H 3.5215477611940305 -4.019849253731343 -3.0234597014925377
C 3.7281477611940304 -2.060049253731343 -1.156659701492538
H 3.9048477611940298 -1.032549253731343 -0.8295597014925382
H 3.12924776119403 -2.623249253731343 -0.4404597014925382
H 4.68244776119403 -2.5769492537313434 -1.3005597014925383
C 3.1110477611940297 3.755250746268656 2.588740298507462
H 3.40124776119403 4.809350746268656 2.534540298507462
H 2.9823477611940303 3.461750746268656 3.634840298507462
H 3.86514776119403 3.1392507462686563 2.091540298507462
C 1.99744776119403 3.9574507462686572 0.40494029850746194
H 2.67914776119403 3.230350746268657 -0.04295970149253803
H 1.03214776119403 3.981150746268657 -0.10175970149253821
H 2.4399477611940297 4.958250746268657 0.368240298507462
C 0.7418477611940297 4.4992507462686575 2.475440298507462
H -0.18475223880597014 4.424250746268656 1.901240298507462
H 0.57844776119403 4.189650746268656 3.511940298507462
H 1.1210477611940297 5.524350746268658 2.4432402985074617
N 3.00114776119403 -2.025349253731343 -2.490159701492538
N 1.7831477611940298 3.586450746268657 1.862540298507462
C -3.55075223880597 -3.8435492537313434 0.6444402985074619
H -2.62515223880597 -2.2736492537313433 1.7424402985074618
H -4.67195223880597 -1.3478492537313436 1.5102402985074619
H -4.83415223880597 -1.6757492537313432 -0.1945597014925382
H -3.7169522388059697 0.17335074626865676 -0.900559701492538
H -3.9132522388059705 -4.043149253731343 -0.34225970149253815
H -4.35435223880597 -3.9354492537313432 1.3449402985074619
H -2.78115223880597 -4.545049253731343 0.8904402985074619
H -5.24235223880597 1.138950746268657 1.5249402985074618
H -5.92805223880597 0.6501507462686567 -0.006059701492538094
H -4.89895223880597 2.059650746268657 0.08004029850746197
C 0.5222032999855817 -1.139540721236173 4.125995375156153
O 0.8056536756256294 -1.0689507942296554 2.9400575836364076
O -0.6232601717119499 -1.2418878980297892 4.579944661430528
O 1.3369675460442672 -1.1195528001218171 5.05573087020512
O -4.677085261855941 -6.1403466225574075 3.1972866034846232
H -4.332222647188291 -6.217568480264838 2.2950261540595105
H -4.105864514478601 -6.725569014666291 3.717078440511741
O 6.230516129699589 1.3992623966566469 3.8109288001090236
H 5.347502249873578 1.6110445325133216 4.149162701228653
H 6.7307701806412705 2.220217755352695 3.932337728300816
O 4.863355175826683 -2.114740771277978 -7.710489784747716
H 5.750714592646998 -2.2107013250424634 -8.087785682421579
H 4.806809766071488 -1.1749135138028408 -7.481384378782737
O 1.9015639711078753 7.123082967415863 5.41495536944417
H 2.041377250319232 7.1496348269594545 4.456459358700803
H 1.8692036159933587 8.056609959009997 5.672719035778409
O 2.9034601528631856 7.9489466961785755 -2.5352101251556736
H 2.93609437888072 8.713711715067618 -3.1293791499927845
H 2.962425414743305 8.33788222101269 -1.6496514316105082
O -3.2153096503256053 -9.977096140569035 -1.9120358968936633
H -3.2354941166005413 -10.444691360618153 -2.7605137424550037
H -2.2908756040114246 -9.702169360281118 -1.818233424667664
O 8.133689126083498 2.2584521556629222 -2.971841159526701
H 8.695484953014907 3.024759697640662 -2.781773916555985
H 8.639289308284457 1.5065993279639205 -2.6282604185947163
O 7.074258384886874 3.0010505762603845 0.531220505906999
H 7.239659809668633 2.680260825421918 1.4305000293796284
H 6.528259812092889 3.7909553378823904 0.6612126994180456
O -7.856801762307952 6.4629570630234285 2.3563199172908087
H -7.533766644474933 6.007640263859258 1.5642957497646508
H -7.208145900171474 6.234062063643911 3.038826031604104
O 8.53636469622937 -2.771336699115568 5.960695889721981
H 8.333251737837573 -2.5372284485382663 5.042596869983385
H 9.08316009389411 -2.0354303043605375 6.274413143871812
O -4.982784893192215 -0.6404059402693366 -4.3407203422728085
H -5.258680436142948 -0.7624244568248534 -5.261568042979887
H -4.096395531196173 -1.0305654481028474 -4.308295017488595
O 5.675356548060024 0.27537016045954704 -1.465143045495949
H 6.28669264114302 0.5819380393804076 -0.7786653154799018
H 5.019448812538248 0.9857995053355372 -1.5286814804921596
O 0.8829791747463052 -7.369314109968762 5.3254679427155285
H 0.8942762503658814 -7.426603645639933 4.358225655548023
H 1.1444471573426038 -8.256139374777117 5.615532397750292
O 5.2678481077570165 -4.1541562148909055 4.09968380153013
H 5.536140289690862 -3.648907529635056 4.881802991973897
H 4.315310608220436 -4.284527554428887 4.220669627574623
O -1.70322589709244 -3.001579496548489 9.508945974853601
H -2.148974735818937 -3.738264227101573 9.064456450293221
H -0.7671539644218592 -3.251649494706358 9.49493607879092
O 1.6667799170661943 10.376699439207693 -2.4575336429822023
H 1.4264867839236355 9.795609394708368 -1.7202677972736773
H 1.2792907587158837 9.943510103032613 -3.2328794338943343
O 4.238821604571335 0.7549201257069498 1.733581598425547
H 4.889826383263752 1.4262692300721473 1.4797105384606786
H 4.777260328908348 -0.013441922158029307 1.9757911106976
O 3.1843712340092227 7.379573758378838 -7.798054616717266
H 3.068348337107809 7.432416592020323 -8.75863448285404
H 2.378466365047442 7.783288105998158 -7.442394649880962
O 1.8688158718563714 -4.543123025276399 7.493199932668658
H 1.9717670149305488 -4.567403488647889 8.456412722314948
H 0.9195584705835551 -4.680862735533322 7.3557222884965325
O -8.677595326527511 2.864594255899982 2.500192775514953
H -8.522120324348768 1.9163396133589652 2.3752607400039243
H -8.243664949100625 3.275421049274865 1.737377124330822
C -6.776674224994144 -20.855331293884547 -5.668495662044715
O -7.611093043471319 -21.535688811546258 -5.14535405518062
O -5.942255406516967 -20.17497377622284 -6.191637268908813
O 0.43154912142166024 4.078674510077471 -3.567887014273612
H 0.1667144877332234 4.989648089626254 -3.3705114558495985
H 0.8569810297876508 4.141525717304276 -4.4362298966617875
O 13.508214430462543 -5.994791715328174 5.279069363103121
H 13.793016968226107 -6.92013683296487 5.318960272460596
H 13.983846555218035 -5.636250002710767 4.514750145423784
O -0.07805340915601455 -14.099581933036383 6.054962300644339
H -0.6139093902880974 -13.32630501361749 5.822866350057093
H 0.8054349213544052 -13.880360540105382 5.722769141423232
O -10.68283565587565 20.956288277230428 2.6822382707627304
H -10.51859616937397 21.739280910779804 2.135506815859067
H -11.269320610482977 20.40964120255686 2.138019272500017
O -4.140222838024422 -9.940022672437301 20.158900820057404
H -3.707586055997907 -10.360137742585536 19.400418058505053
H -3.4187057447780917 -9.482364020855798 20.61598241789959
O 3.889121621061606 13.169795404475376 3.5718585504134284
H 4.034103481397705 13.654602795737201 2.745475218991873
H 3.6563332578884618 12.275356961875769 3.2807376224965976
O -4.712610696861823 -7.912296196659869 -7.141682864198725
H -5.308092694938858 -8.218040346323042 -6.441048107843513
H -4.055056463614081 -7.376786502796636 -6.672839881509981
O 14.152751553515163 6.33558629727622 7.784756978708527
H 14.240255417412328 6.383303370225088 8.748620823684705
H 15.04020370531138 6.092540035500849 7.48091633427583
O -5.0433349019883815 -17.95656746529997 1.5895521635021046
H -4.492894080358937 -17.368377000337105 2.128081861578888
H -4.45976814561829 -18.70328556577143 1.3875030021873727
O 19.77186554576702 -4.313388667567273 -1.2107501225511408
H 20.588766336296985 -3.850757386190579 -0.9707235556397267
H 19.978540071433866 -4.726671613244543 -2.0624805913924904
O -5.4524132078437795 -6.992773361937923 5.284847749571084
H -6.188576265002051 -7.167569089792966 5.890221818803501
H -4.77470690221033 -6.592342032742741 5.849941421632312
O 3.7066226205541124 -6.350644162151455 -15.764393178653362
H 3.927354761752651 -7.2316085268531225 -16.102248868064834
H 4.453769686862097 -5.799552265790149 -16.041937638825548
O 5.611229632669642 14.785745976475576 3.975601767267136
H 6.000606570908415 14.199125103670802 3.309847376776495
H 5.8458555913271155 14.370710597089257 4.819200153753094
O -8.223724366621957 -3.058218146051539 -5.030934717290001
H -8.302196926197437 -3.22216781544258 -5.982738226529299
H -8.909751539469461 -3.619496744260883 -4.639405666507031
O -23.085004757905264 -5.362432927709141 -9.996493047061886
H -22.209510703119815 -5.370588181142408 -10.411717093543748
H -23.08029811111973 -6.144938432482899 -9.424981956377895
O -2.9898949696270343 -3.09306783230181 11.960324867606644
H -2.3732884417735693 -2.4992095684595954 11.506346774330321
H -3.8625871390159654 -2.7241245261051867 11.757221055234881
O -8.755257538336137 1.8058683688851187 -7.3209882999710425
H -8.602311687167354 2.612876607233067 -6.806874862343899
H -9.68837664901624 1.863940488873114 -7.575700487476219
O 14.683713215026884 -7.465812048804153 -9.950214477793265
H 15.178770755373607 -7.08777252393588 -10.692489026921299
H 14.495633383898266 -6.7037667772796405 -9.381993635541097
O -12.120841068718029 1.0480722382809589 -14.907404464008291
H -12.109467527948468 1.2131886729744776 -13.952640324304424
H -13.047440381960772 1.1822901779092874 -15.15712671307713
O 11.974883629802246 -6.7137632752071 9.14324356490367
H 11.410716684283322 -7.482282852289558 9.316623708302073
H 11.488018861755378 -6.212729731531107 8.471760110121538