194

C -5.0710522388059704 1.0783507462686561 0.47044029850746183
C -3.8153522388059704 0.1782507462686569 0.19534029850746193
C -4.11845223880597 -1.3219492537313435 0.5608402985074619
C -2.96945223880597 -2.3874492537313436 0.7034402985074619
C -2.52015223880597 0.7359507462686565 0.7384402985074618
C -2.20305223880597 0.7852507462686571 2.097440298507462
C -1.5755522388059702 1.205650746268656 -0.18965970149253808
C -0.9533522388059701 1.2695507462686564 2.508640298507462
H -2.91125223880597 0.4298507462686567 2.840840298507462
C -0.32655223880597006 1.6562507462686575 0.21554029850746192
H -1.7850522388059702 1.178550746268657 -1.2573597014925382
C 0.004447761194029898 1.6956507462686563 1.569740298507462
H -0.7158522388059702 1.2676507462686573 3.5705402985074617
H 0.3943477611940298 1.9193507462686572 -0.5551597014925382
C -1.76045223880597 -2.1592492537313435 -0.1734597014925381
C -0.5287522388059701 -1.936549253731343 0.464840298507462
C -1.8068522388059702 -2.121249253731343 -1.5681597014925381
C 0.6114477611940299 -1.614449253731343 -0.2582597014925381
H -0.4544522388059702 -1.954049253731343 1.5506402985074619
C -0.6479522388059701 -1.8270492537313432 -2.2998597014925384
H -2.74345223880597 -2.290549253731343 -2.092259701492538
C 0.5698477611940298 -1.5506492537313434 -1.6506597014925382
H 1.5072477611940298 -1.351949253731343 0.2991402985074618
H -0.7173522388059701 -1.7640492537313435 -3.3840597014925375
C 1.7791477611940298 -1.082849253731343 -2.4255597014925376
H 1.4739477611940297 -0.9102492537313429 -3.464259701492538
H 2.1252477611940295 -0.1337492537313434 -2.0010597014925384
C 1.3965477611940298 2.0964507462686566 1.997440298507462
H 1.51704776119403 1.8448507462686567 3.057640298507462
H 2.1256477611940294 1.5207507462686571 1.4165402985074618
C 3.94864776119403 -1.4275492537313434 -3.522959701492538
H 4.81734776119403 -2.087049253731343 -3.615159701492538
H 3.4305477611940303 -1.3641492537313429 -4.484459701492538
H 4.26984776119403 -0.441449253731343 -3.176459701492538
C 2.60904776119403 -3.4296492537313434 -2.8992597014925376
H 1.9825477611940296 -3.869549253731343 -2.119359701492538
H 2.06294776119403 -3.373349253731343 -3.845759701492538
H 3.5215477611940305 -4.019849253731343 -3.0234597014925377
C 3.7281477611940304 -2.060049253731343 -1.156659701492538
H 3.9048477611940298 -1.032549253731343 -0.8295597014925382
H 3.12924776119403 -2.623249253731343 -0.4404597014925382
H 4.68244776119403 -2.5769492537313434 -1.3005597014925383
C 3.1110477611940297 3.755250746268656 2.588740298507462
H 3.40124776119403 4.809350746268656 2.534540298507462
H 2.9823477611940303 3.461750746268656 3.634840298507462
H 3.86514776119403 3.1392507462686563 2.091540298507462
C 1.99744776119403 3.9574507462686572 0.40494029850746194
H 2.67914776119403 3.230350746268657 -0.04295970149253803
H 1.03214776119403 3.981150746268657 -0.10175970149253821
H 2.4399477611940297 4.958250746268657 0.368240298507462
C 0.7418477611940297 4.4992507462686575 2.475440298507462
H -0.18475223880597014 4.424250746268656 1.901240298507462
H 0.57844776119403 4.189650746268656 3.511940298507462
H 1.1210477611940297 5.524350746268658 2.4432402985074617
N 3.00114776119403 -2.025349253731343 -2.490159701492538
N 1.7831477611940298 3.586450746268657 1.862540298507462
C -3.55075223880597 -3.8435492537313434 0.6444402985074619
H -2.62515223880597 -2.2736492537313433 1.7424402985074618
H -4.67195223880597 -1.3478492537313436 1.5102402985074619
H -4.83415223880597 -1.6757492537313432 -0.1945597014925382
H -3.7169522388059697 0.17335074626865676 -0.900559701492538
H -3.9132522388059705 -4.043149253731343 -0.34225970149253815
H -4.35435223880597 -3.9354492537313432 1.3449402985074619
H -2.78115223880597 -4.545049253731343 0.8904402985074619
H -5.24235223880597 1.138950746268657 1.5249402985074618
H -5.92805223880597 0.6501507462686567 -0.006059701492538094
H -4.89895223880597 2.059650746268657 0.08004029850746197
C -0.013871497706394842 2.406166342901746 -2.9052406594840767
O -0.4426622104274298 3.5497424379204157 -2.9173954192939937
O 1.1475576891169619 2.083573699114953 -2.6301994002710556
O -0.6750260610206618 1.3944978079250179 -3.1661042313885535
O -9.559856698961797 5.717633775228289 -2.5995157352210283
H -9.399823934643418 4.947957834388347 -2.0329861090435717
H -8.671353075810417 6.0411777599754775 -2.811276321451754
O -3.3307304980850514 4.027495347128758 1.7481114746949293
H -2.877169815930852 4.660959129704665 1.1719398850895042
H -4.015735835785335 4.556390247557082 2.184001157898182
O 0.971462304618254 -6.469062070298291 -0.33251827715915294
H 1.309757490160821 -5.828234605441898 0.31080425829600244
H 0.3079711121472626 -6.97122252014408 0.16404618434015325
O 0.35600593292292493 -4.194961493620616 -9.133001477758652
H 0.6728405045204342 -4.059584732046744 -10.038681522568295
H -0.14012471543727878 -5.025969273095406 -9.180355405896274
O -2.032843770164479 -0.3065988894025551 -8.624191255441389
H -1.2895901958412095 -0.3786605973169046 -8.006656971852086
H -1.8367782444792202 -0.9680532840042717 -9.304631067474633
O -3.6707858183960127 -2.584160843476023 -5.907908459047566
H -3.39110024531691 -2.711183453783519 -6.826934352905886
H -4.337347854241644 -1.8828420698418402 -5.960908217703371
O -7.572960349636819 3.5906777797121023 -0.6929474066777682
H -6.660806615335853 3.3048553038015878 -0.5340498479640221
H -8.02657831439434 2.7812541920047336 -0.972279005341746
O -5.016514504910179 -7.240353384381468 0.6944805550045074
H -4.595450664162939 -7.2359346677939005 -0.17824682159078542
H -5.666650362746244 -7.95658550145747 0.6370622206104126
O -5.19206552234941 9.159146840924551 2.942860780712667
H -5.24036961482961 9.122066815148807 3.909948751498229
H -6.060296192986088 8.841349477721966 2.6527878884816487
O -0.27384011494354255 1.810477476782152 -7.8045137184083
H -0.3267016046959751 1.8260041227240769 -8.7719494749663
H -0.8721105393291017 2.5200293211724127 -7.525998685191237
O 2.795699560857302 -5.4259163872770575 7.348314101911064
H 3.30882987259956 -5.7937368489896715 6.6132135999272785
H 2.2199493070735645 -6.156286720836759 7.620403729467599
O -1.338913115927387 -7.42128288502885 5.971793992736737
H -0.4679497710860453 -7.167857573556462 5.63096291969922
H -1.68078345998696 -8.036743147480486 5.305989759124822
O -0.40599224077943585 8.455329914017 -0.8326130527045241
H -1.2776659210312171 8.045538119405014 -0.7266742159872703
H -0.05448707219058435 8.494321772037893 0.06954308442662738
O 5.572929357447381 -6.741985040752304 -7.069616743771739
H 5.599462642940698 -6.764807945343573 -8.037987776324318
H 4.870722499597119 -6.104893695719465 -6.8696615208534295
O 7.732140175735798 -5.6457333165465124 -2.7901735497731193
H 7.254643070101849 -5.8641803172491915 -3.6045719651050785
H 7.517043670685775 -6.375338711272953 -2.1898641247252204
O 5.493204639699128 -4.370678039759224 4.30432740496494
H 6.262363975099605 -4.6251930811541415 4.8359131152413175
H 5.3897770963147895 -5.10205704582399 3.67715164247312
O -6.2977302935664285 1.1850097399518962 -4.909897135618961
H -6.380489227024251 1.5066155931591 -5.820220150276831
H -5.551095409472018 1.6877149434623957 -4.551029788933877
O -4.232217477133232 5.807865400481397 -7.441736325131624
H -3.3372371479193657 5.441201954529602 -7.501196266461862
H -4.525407678007742 5.566227724412987 -6.550325822660725
O 10.706728464656402 -3.3918278545901988 -2.686211869080107
H 10.344340445184226 -2.508390783722125 -2.8510791552804737
H 9.929018880887506 -3.9697498456947864 -2.697870334318665
O -0.9298606141207828 -3.7216522955330924 -5.351337052186549
H -1.2324667026439977 -3.8465412086212605 -4.439306531054533
H -1.5791985544184985 -3.111321189388402 -5.731886818264677
C 4.385764625047473 -13.630727891840596 2.2289741569343007
O 3.858247545899383 -12.782158132286732 2.8881200828700977
O 4.913281704195565 -14.479297651394464 1.5698282309985023
O 9.709553749560786 -18.185752778208986 -4.6172740902216205
H 9.782172486754291 -18.157274571583294 -5.583132707026278
H 9.178093586362728 -17.405340236198157 -4.399401871924551
O 10.910787418042887 -14.511225981343692 -11.479376141003076
H 10.006912321094294 -14.761249492872679 -11.235520836162502
H 11.190802783777187 -15.210701171495364 -12.088710037659881
O 19.00678330145986 6.452075330392508 -3.8550283975086694
H 18.283700544317696 6.332402835867179 -4.488903130620645
H 18.76397683946262 7.256293565258435 -3.3720791278938247
O 2.757088855079005 11.995644052452581 -2.341736455859764
H 2.2375440172863326 11.5969480268625 -3.0559367062109235
H 3.0488057243065905 12.843315957349812 -2.709589081453158
O 3.1861577051328096 5.8846280236091575 -8.537935947976793
H 3.1699239319471384 5.988578053084981 -9.501210681830086
H 3.776510842289726 6.591300454258435 -8.236175789060429
O -12.790751603959393 2.653987364297343 -2.1434199991146663
H -12.540045962016226 2.154905164694807 -2.9352728869907927
H -13.494756247111473 2.1211914120190336 -1.7440857031217467
O -7.464623039102082 16.417932490241697 -8.319002370874585
H -7.678029540488273 16.650961505950146 -9.235038669229656
H -7.441360412320913 17.27092154602705 -7.859839583613198
O -7.391838398013625 3.910108814156376 -12.391576129603225
H -8.233037672640972 3.67752573183402 -12.812594237389408
H -7.580723819357618 4.744423341686663 -11.93638000587674
O 4.873247832339307 17.637447814583005 8.605846170042737
H 4.478843759989259 18.51604750270868 8.498723004298075
H 5.748842305859157 17.722834489116178 8.199637629938444
O 22.92050409124124 -3.690696036167361 11.263417470820738
H 22.543130570192695 -4.140725884770269 10.492684236894842
H 22.157252043261913 -3.267003228589605 11.684003562319532
O -1.9602836646146509 -5.295783326432311 -10.213539301520521
H -2.890548733922688 -5.135350319650277 -10.432252602579664
H -1.6315266935853598 -5.819891927979556 -10.959321422574543
O 11.31633383808046 -5.042001199045133 -13.656879970327058
H 11.054504014304573 -4.983868845791529 -12.725733832609306
H 10.547514790495313 -5.440442228373554 -14.091763819783415
O 9.961141108961716 0.5158909041791357 9.062543197082297
H 9.631595285273162 -0.11051085640284342 9.724349619935104
H 10.05933154612774 -0.020189375798707054 8.261332540782705
O 4.73630066114486 -9.088949565920919 -12.069138742485416
H 5.409809809498931 -8.395615728126913 -12.137263432233048
H 5.055559667094446 -9.655624265384736 -11.35086622010434
O -2.0303330208392247 -1.4267221020255305 6.2876569577275365
H -1.632198890337702 -1.8165726355150995 5.49489398396571
H -1.7356495924651125 -0.5038281730065881 6.267897982003613
O -8.268696038425404 -15.532762960503826 -15.423468009937743
H -7.577707392492016 -15.625848643754424 -14.750536287052789
H -7.77710735275731 -15.374731735961431 -16.243424496888572
O 5.644110425376656 15.247100037635384 3.2581328137147425
H 5.488661843778497 16.155160122853538 3.5585158641898325
H 4.765334242683283 14.839419666872322 3.2807398994481263
O -1.0886393054091217 8.720438634361592 13.988638698494928
H -0.3467918740490479 8.0978723616433 13.9563744526783
H -1.7194848823526314 8.366442054059677 13.34390447147936
O -7.807655402333279 -16.494670590258742 10.533497870472418
H -8.156557488649174 -15.89166848119024 9.859982356528342
H -6.9118447460588035 -16.697418409120072 10.224663716998315
O 15.765421926291056 4.772742665324697 -6.299238347074587
H 15.884232515727748 5.124277785848436 -7.194377699229359
H 16.624351984541956 4.917948937860772 -5.874837312969714