194

C -5.0710522388059704 1.0783507462686561 0.47044029850746183
C -3.8153522388059704 0.1782507462686569 0.19534029850746193
C -4.11845223880597 -1.3219492537313435 0.5608402985074619
C -2.96945223880597 -2.3874492537313436 0.7034402985074619
C -2.52015223880597 0.7359507462686565 0.7384402985074618
C -2.20305223880597 0.7852507462686571 2.097440298507462
C -1.5755522388059702 1.205650746268656 -0.18965970149253808
C -0.9533522388059701 1.2695507462686564 2.508640298507462
H -2.91125223880597 0.4298507462686567 2.840840298507462
C -0.32655223880597006 1.6562507462686575 0.21554029850746192
H -1.7850522388059702 1.178550746268657 -1.2573597014925382
C 0.004447761194029898 1.6956507462686563 1.569740298507462
H -0.7158522388059702 1.2676507462686573 3.5705402985074617
H 0.3943477611940298 1.9193507462686572 -0.5551597014925382
C -1.76045223880597 -2.1592492537313435 -0.1734597014925381
C -0.5287522388059701 -1.936549253731343 0.464840298507462
C -1.8068522388059702 -2.121249253731343 -1.5681597014925381
C 0.6114477611940299 -1.614449253731343 -0.2582597014925381
H -0.4544522388059702 -1.954049253731343 1.5506402985074619
C -0.6479522388059701 -1.8270492537313432 -2.2998597014925384
H -2.74345223880597 -2.290549253731343 -2.092259701492538
C 0.5698477611940298 -1.5506492537313434 -1.6506597014925382
H 1.5072477611940298 -1.351949253731343 0.2991402985074618
H -0.7173522388059701 -1.7640492537313435 -3.3840597014925375
C 1.7791477611940298 -1.082849253731343 -2.4255597014925376
H 1.4739477611940297 -0.9102492537313429 -3.464259701492538
H 2.1252477611940295 -0.1337492537313434 -2.0010597014925384
C 1.3965477611940298 2.0964507462686566 1.997440298507462
H 1.51704776119403 1.8448507462686567 3.057640298507462
H 2.1256477611940294 1.5207507462686571 1.4165402985074618
C 3.94864776119403 -1.4275492537313434 -3.522959701492538
H 4.81734776119403 -2.087049253731343 -3.615159701492538
H 3.4305477611940303 -1.3641492537313429 -4.484459701492538
H 4.26984776119403 -0.441449253731343 -3.176459701492538
C 2.60904776119403 -3.4296492537313434 -2.8992597014925376
H 1.9825477611940296 -3.869549253731343 -2.119359701492538
H 2.06294776119403 -3.373349253731343 -3.845759701492538
H 3.5215477611940305 -4.019849253731343 -3.0234597014925377
C 3.7281477611940304 -2.060049253731343 -1.156659701492538
H 3.9048477611940298 -1.032549253731343 -0.8295597014925382
H 3.12924776119403 -2.623249253731343 -0.4404597014925382
H 4.68244776119403 -2.5769492537313434 -1.3005597014925383
C 3.1110477611940297 3.755250746268656 2.588740298507462
H 3.40124776119403 4.809350746268656 2.534540298507462
H 2.9823477611940303 3.461750746268656 3.634840298507462
H 3.86514776119403 3.1392507462686563 2.091540298507462
C 1.99744776119403 3.9574507462686572 0.40494029850746194
H 2.67914776119403 3.230350746268657 -0.04295970149253803
H 1.03214776119403 3.981150746268657 -0.10175970149253821
H 2.4399477611940297 4.958250746268657 0.368240298507462
C 0.7418477611940297 4.4992507462686575 2.475440298507462
H -0.18475223880597014 4.424250746268656 1.901240298507462
H 0.57844776119403 4.189650746268656 3.511940298507462
H 1.1210477611940297 5.524350746268658 2.4432402985074617
N 3.00114776119403 -2.025349253731343 -2.490159701492538
N 1.7831477611940298 3.586450746268657 1.862540298507462
C -3.55075223880597 -3.8435492537313434 0.6444402985074619
H -2.62515223880597 -2.2736492537313433 1.7424402985074618
H -4.67195223880597 -1.3478492537313436 1.5102402985074619
H -4.83415223880597 -1.6757492537313432 -0.1945597014925382
H -3.7169522388059697 0.17335074626865676 -0.900559701492538
H -3.9132522388059705 -4.043149253731343 -0.34225970149253815
H -4.35435223880597 -3.9354492537313432 1.3449402985074619
H -2.78115223880597 -4.545049253731343 0.8904402985074619
H -5.24235223880597 1.138950746268657 1.5249402985074618
H -5.92805223880597 0.6501507462686567 -0.006059701492538094
H -4.89895223880597 2.059650746268657 0.08004029850746197
C 5.078596507195808 -0.6517135289678017 0.8014200964164253
O 4.557010207281518 -1.682037558287675 1.1991079450462028
O 6.1662711315497845 -0.583039353575591 0.2175714574091585
O 4.599466654850657 0.48174035942737736 0.9212752251075336
O -1.5232109193631753 -7.759972408000551 7.105575384080262
H -2.341603253702331 -8.23805943336739 7.307154500485693
H -1.7253672636926918 -6.841345207302177 7.3384247407132435
O 2.556860491442702 9.261729092451665 -5.8672824597063915
H 2.358034587154556 9.370779106709975 -4.925187076491792
H 1.7145122127962686 9.450192129431272 -6.307615294564085
O -4.350029242343224 -4.254311555472408 -6.121984176967783
H -4.418972437964735 -4.6879906148132 -6.985776204117131
H -3.611654512756097 -4.709350846933816 -5.689891656512456
O 6.9582589630100555 5.663019815637746 -1.5609196823333196
H 7.255323628943387 6.584946404934713 -1.5886920625190144
H 6.01336200235477 5.715199894904357 -1.7692677501720475
O -3.0134247438722532 6.445611888795906 9.267433850605164
H -3.1642276972298977 6.552536919827355 8.31622784563172
H -3.841965642048728 6.745114527140762 9.670894002260058
O 3.6706065520762667 -1.1847085505912271 10.020632947739477
H 3.3351542123401385 -0.4065919976751675 9.550554534340618
H 3.0103320823149717 -1.3432132598785025 10.711918580466785
O 1.9043347613095352 -4.766225531650825 -6.711234470270904
H 1.4386981543379354 -4.248646899828547 -6.037244658011881
H 1.1939744773588898 -5.116651357510062 -7.269402860504918
O -3.1199584231498827 -2.6016885633159323 11.720644217532229
H -3.5184011318343367 -2.848520960075095 10.872537778041096
H -2.38251677958607 -3.2220400606960196 11.822161636412856
O 4.989355249284197 -0.043215512765920394 -7.8241496725975095
H 4.37030205713692 0.2844371654572857 -8.493764654990695
H 5.813371273229808 -0.181496966226935 -8.314901928027453
O -7.115031107977923 3.378984678194085 4.177111405466764
H -6.97135265650691 4.243163926587269 3.7629639846979233
H -8.04180692822371 3.405609765623403 4.458784315110425
O -0.31733232850818505 8.92897422351675 1.7934634070334878
H -0.11729066019272438 8.323999860484298 1.0634245670317728
H -0.6352258960205799 9.731052512674143 1.3523556627163087
O -7.385432625084915 0.04858392600561556 -1.6513719626751753
H -7.379175170411001 0.03324667396098935 -2.6202336503585744
H -6.945598403757635 -0.7778542241454987 -1.4013563911116647
O -6.479692533160641 -5.745193108783668 0.08778174714215314
H -6.050090164106555 -6.485471652895002 -0.3665274411113122
H -6.222268006780524 -4.969736682528177 -0.4331423245775512
O 1.854872019396253 2.2181537643076066 5.9530817077818305
H 1.0052324205277081 2.0228103585796293 6.376072089200952
H 1.60916598268166 2.5482444357850333 5.075795758717566
O 2.8422257572717373 -7.740368288267973 2.486496127080785
H 3.030121317770825 -8.448349818280725 1.852126543631565
H 1.9217182092532423 -7.499751241175439 2.302835475362879
O -1.4879865188420967 11.783537210035865 3.597850991368154
H -1.3661046965996135 10.978414822684563 4.123103425624858
H -2.3638665712151585 12.104075746138419 3.8606267989079535
O 0.20207874988376817 -9.113531026902086 -0.337759111176692
H -0.44208728390918095 -9.545119111375254 -0.9189210534511703
H 0.9285176862898017 -9.752073129713002 -0.27849361606290346
O 4.030997340501988 -6.147859367464511 4.9674564707426025
H 4.080503295194271 -6.634279500123682 5.804063888767234
H 3.0987996288036364 -5.892016208017958 4.900272779501627
O -2.241481672620374 7.705888847972105 -1.4929261392705337
H -2.802263632472549 7.679121448500282 -0.7031322061906005
H -1.4762321760288675 8.233376955285282 -1.2188614591134406
O 7.243135047000595 -6.2278516875345975 3.9559132361940477
H 7.993387050305143 -6.776132357703111 3.6811813757244676
H 6.782715059149352 -6.772798135420198 4.611663758896034
C -5.85560979733336 -16.509751698044113 6.865852661563828
O -6.9219398086754484 -16.864364549760197 6.453532046497147
O -4.789279785991269 -16.15513884632803 7.278173276630509
O 3.6493547701809126 -12.489390644223988 0.3727589667679392
H 4.596573955352391 -12.310176295220467 0.47086803492337115
H 3.3497239615967733 -11.82289086037333 -0.2636067778901463
O -0.18340025173908092 -4.766980261863671 -20.48316922940984
H 0.25681710562190485 -4.036200722605332 -20.02367243923663
H 0.39676067198174536 -5.526685247638812 -20.32434989344664
O 3.3182689856331775 -8.067934472344254 -13.83129335139181
H 4.2609786371342775 -7.843809503668427 -13.83711299766407
H 2.8740952595376728 -7.214631191434567 -13.947677010619376
O 6.618081465834401 -4.70840941945184 -4.396664258318362
H 7.134244459952535 -5.504477060623371 -4.199637785268166
H 5.788514914102163 -4.841932462091688 -3.91401233650381
O 9.908603755195411 -3.901072049551626 2.6469718491222425
H 10.31475915305992 -3.373307336302323 1.9430758645233803
H 10.441300537398238 -3.696303765579393 3.4300848884785156
O 8.049077213684019 -7.280068190881956 -8.131164407855282
H 7.767953919697645 -7.276066783708384 -9.058483683627593
H 8.09838847881656 -6.340960696803482 -7.897482020849587
O 6.056067375143744 2.6902654794530054 19.23030345785251
H 6.86322965916342 2.1977573172584854 19.442181050645893
H 5.859419792395643 2.435310647762785 18.316361607242122
O -2.800434452435629 13.829031562031524 -6.802641968426086
H -2.7349797740697426 14.777720140664064 -6.988848903721714
H -3.0930460293443467 13.791313906780802 -5.879648042204804
O -0.9585446754709097 5.464784076053222 -12.015664716966455
H -0.7197113559758543 5.236671478213276 -12.926648056608672
H -1.848758277427818 5.0974771757017905 -11.90811320305275
O -18.81086499994575 6.42560732709147 7.082697220350139
H -19.272431261175207 6.5589733280833675 7.924206253679012
H -18.640104251567948 7.324746694922813 6.764340332048187
O -9.527365289084411 11.742150004700449 -4.6035597167236215
H -9.850746832301551 11.552429541907747 -5.49709084679365
H -8.693902619288357 11.25111456426535 -4.547114003041003
O -20.152232852583655 -3.625966150853644 0.6850148500259916
H -19.515949646298385 -3.068508748302275 0.21241323911038723
H -20.931986042402656 -3.630502546494237 0.10975288502075653
O -8.104671484977025 2.811233570587644 -1.7555599530764516
H -8.234903003249805 2.9182432387862676 -2.7097905538540563
H -8.998641408956246 2.6624883615473323 -1.412551815989093
O -1.416923584427023 -8.163869572190118 -14.608322946667785
H -1.3668066591332426 -8.421511710181733 -13.67554420579179
H -0.6454796932203237 -8.590377589516503 -15.010724708811273
O 6.75031198057407 -1.4679644385629294 -4.287470122968077
H 7.197385083076904 -2.1885634663070537 -3.8186097608849594
H 7.441560422915089 -1.0925321687407616 -4.853321822653864
O 1.291471922874962 5.190728846024174 19.196481078645363
H 1.4223130343957195 5.613219435778456 18.33430379872835
H 1.7986817224266183 5.745223286871308 19.80822945715436
O -2.2398146003155617 -6.092614567269671 -11.90426379247723
H -1.9552236687528852 -6.9810198508910934 -11.642135177851074
H -1.4156212773492536 -5.645341896737542 -12.14842453639978
O -6.06207145680056 2.773816988858453 -8.093023772460366
H -6.086652550395553 3.011347600350746 -9.032141622009492
H -5.819541509371003 1.835661012486327 -8.095152832600302
O 11.856971899417221 0.3402135088932634 5.239720440517287
H 12.270669033844124 1.216414825460884 5.230061728794641
H 12.596880286522458 -0.2662856805567495 5.393526344785645
O 6.861077319480751 -12.29014503664649 -4.698610199936244
H 6.8473856477572035 -13.18598442123778 -4.329487331448647
H 7.158917280448216 -11.7374106502991 -3.9605465169792295