194

C -5.0710522388059704 1.0783507462686561 0.47044029850746183
C -3.8153522388059704 0.1782507462686569 0.19534029850746193
C -4.11845223880597 -1.3219492537313435 0.5608402985074619
C -2.96945223880597 -2.3874492537313436 0.7034402985074619
C -2.52015223880597 0.7359507462686565 0.7384402985074618
C -2.20305223880597 0.7852507462686571 2.097440298507462
C -1.5755522388059702 1.205650746268656 -0.18965970149253808
C -0.9533522388059701 1.2695507462686564 2.508640298507462
H -2.91125223880597 0.4298507462686567 2.840840298507462
C -0.32655223880597006 1.6562507462686575 0.21554029850746192
H -1.7850522388059702 1.178550746268657 -1.2573597014925382
C 0.004447761194029898 1.6956507462686563 1.569740298507462
H -0.7158522388059702 1.2676507462686573 3.5705402985074617
H 0.3943477611940298 1.9193507462686572 -0.5551597014925382
C -1.76045223880597 -2.1592492537313435 -0.1734597014925381
C -0.5287522388059701 -1.936549253731343 0.464840298507462
C -1.8068522388059702 -2.121249253731343 -1.5681597014925381
C 0.6114477611940299 -1.614449253731343 -0.2582597014925381
H -0.4544522388059702 -1.954049253731343 1.5506402985074619
C -0.6479522388059701 -1.8270492537313432 -2.2998597014925384
H -2.74345223880597 -2.290549253731343 -2.092259701492538
C 0.5698477611940298 -1.5506492537313434 -1.6506597014925382
H 1.5072477611940298 -1.351949253731343 0.2991402985074618
H -0.7173522388059701 -1.7640492537313435 -3.3840597014925375
C 1.7791477611940298 -1.082849253731343 -2.4255597014925376
H 1.4739477611940297 -0.9102492537313429 -3.464259701492538
H 2.1252477611940295 -0.1337492537313434 -2.0010597014925384
C 1.3965477611940298 2.0964507462686566 1.997440298507462
H 1.51704776119403 1.8448507462686567 3.057640298507462
H 2.1256477611940294 1.5207507462686571 1.4165402985074618
C 3.94864776119403 -1.4275492537313434 -3.522959701492538
H 4.81734776119403 -2.087049253731343 -3.615159701492538
H 3.4305477611940303 -1.3641492537313429 -4.484459701492538
H 4.26984776119403 -0.441449253731343 -3.176459701492538
C 2.60904776119403 -3.4296492537313434 -2.8992597014925376
H 1.9825477611940296 -3.869549253731343 -2.119359701492538
H 2.06294776119403 -3.373349253731343 -3.845759701492538
H 3.5215477611940305 -4.019849253731343 -3.0234597014925377
C 3.7281477611940304 -2.060049253731343 -1.156659701492538
H 3.9048477611940298 -1.032549253731343 -0.8295597014925382
H 3.12924776119403 -2.623249253731343 -0.4404597014925382
H 4.68244776119403 -2.5769492537313434 -1.3005597014925383
C 3.1110477611940297 3.755250746268656 2.588740298507462
H 3.40124776119403 4.809350746268656 2.534540298507462
H 2.9823477611940303 3.461750746268656 3.634840298507462
H 3.86514776119403 3.1392507462686563 2.091540298507462
C 1.99744776119403 3.9574507462686572 0.40494029850746194
H 2.67914776119403 3.230350746268657 -0.04295970149253803
H 1.03214776119403 3.981150746268657 -0.10175970149253821
H 2.4399477611940297 4.958250746268657 0.368240298507462
C 0.7418477611940297 4.4992507462686575 2.475440298507462
H -0.18475223880597014 4.424250746268656 1.901240298507462
H 0.57844776119403 4.189650746268656 3.511940298507462
H 1.1210477611940297 5.524350746268658 2.4432402985074617
N 3.00114776119403 -2.025349253731343 -2.490159701492538
N 1.7831477611940298 3.586450746268657 1.862540298507462
C -3.55075223880597 -3.8435492537313434 0.6444402985074619
H -2.62515223880597 -2.2736492537313433 1.7424402985074618
H -4.67195223880597 -1.3478492537313436 1.5102402985074619
H -4.83415223880597 -1.6757492537313432 -0.1945597014925382
H -3.7169522388059697 0.17335074626865676 -0.900559701492538
H -3.9132522388059705 -4.043149253731343 -0.34225970149253815
H -4.35435223880597 -3.9354492537313432 1.3449402985074619
H -2.78115223880597 -4.545049253731343 0.8904402985074619
H -5.24235223880597 1.138950746268657 1.5249402985074618
H -5.92805223880597 0.6501507462686567 -0.006059701492538094
H -4.89895223880597 2.059650746268657 0.08004029850746197
C -1.0025479053781279 1.063156585680873 -4.102070568557612
O -0.40103663901545783 2.1021513440259745 -3.8774607130966814
O -1.80603437043753 0.5242968912134744 -3.3322191580602034
O -0.9008625369746233 0.38977825592205484 -5.133995999615432
O 2.396028279974292 -0.8441295741528922 10.350039221837841
H 3.173587934209087 -0.8556377647055811 10.928170610500029
H 1.6623966209526495 -1.0740397788173777 10.93985939017077
O 0.8838134654200835 -7.093942338305435 -5.513232023273723
H 1.1309108698902701 -6.70592615380863 -4.660381702189983
H 0.08855680672016386 -6.604247882694111 -5.771549911227629
O -1.7092796441440443 6.608896658336042 5.058632839762864
H -1.4398176304033572 7.012305112768979 5.897452962877971
H -0.9040278097819927 6.628815833878946 4.519991350456439
O 4.875745854574833 0.1498492767038906 -9.885481898851067
H 4.401135430527633 0.8192266776957675 -9.370073131631205
H 5.376750675073708 -0.34581485391087696 -9.22044567144778
O -6.800638463476109 -4.6225688644875955 3.598224339699182
H -6.444773424919905 -5.418150924717611 3.1746955724665926
H -7.331774457025817 -4.205218819009523 2.9034758670881122
O 5.6604442345260795 -6.505371428893964 -6.557310814904358
H 5.537962263220442 -6.510720816086605 -7.518527183710961
H 5.1057502351706425 -7.236629855636117 -6.246605770372314
O -5.7301881329085695 -5.214132849161768 -5.819443908949585
H -6.407601537083901 -4.646646191175926 -6.2169830010545635
H -5.263698058867793 -4.627018852167039 -5.205728902082145
O 1.7600699886934812 -1.8218081621136715 3.805911210034681
H 2.36694980277033 -1.1085613089620143 4.0547950677581355
H 2.246869675359729 -2.3185642168303717 3.1312102159165884
O 1.8210439148235091 5.817355865304633 -5.981859349734091
H 1.186279081816311 5.094183592752085 -5.867566620794202
H 1.3693013253671666 6.587123785664943 -5.604569108731966
O -5.216566691937775 -2.34075109078995 7.911590301334838
H -4.362689470609755 -2.4789595178880397 8.348350508400696
H -4.978636257535015 -2.0936379515431858 7.005341908731286
O -6.380158179868974 -0.8618127377639337 4.297295105240424
H -5.70591994915745 -1.0683030850012023 3.6326659592914754
H -7.142651730288572 -0.5711539887664648 3.7747216448544796
O -3.0086233046391095 -7.590059399679035 -7.578054869386833
H -3.0309745837604734 -7.457180781061851 -6.618465868857946
H -3.3344306739994667 -6.751508559467746 -7.938115962468864
O 2.3668108282576252 -8.001580334844883 5.557152460110353
H 3.1456551514489703 -8.541113308479346 5.76031015131049
H 2.718740783061718 -7.101996341557156 5.480628671442436
O -1.8283446501646639 3.179461193447114 5.750085261068385
H -1.8220146671972914 2.774590177590727 6.630429937166928
H -2.7671491973952693 3.3430231972014557 5.5744281025834495
O 4.490043631057573 -5.626981256110032 1.224808128332814
H 4.180329960377005 -5.709242962039398 0.31032586451838706
H 5.427850534156389 -5.400305844521444 1.1348169366452185
O 4.858916556862209 -2.7152959907631065 -7.0530255252130765
H 3.9681596507322645 -2.7425270379696185 -7.433522517513736
H 4.708230569961375 -2.790765436715764 -6.09879282802684
O 3.5332702097670583 2.716749578627801 -2.7880934050188175
H 3.513258235627335 2.655067304891528 -1.8212624089818907
H 4.255183854239913 3.337547352353021 -2.968128841424353
O -2.430547313173432 6.677153854742393 -1.1131401417470599
H -2.937652640543782 7.395332284477757 -1.5206095110442581
H -3.0767842842362123 5.962170213046763 -1.012451941647658
O 8.03104024269862 0.4023580296645459 0.8228520236131137
H 8.604435019395705 1.0440670124921851 0.37743607383715577
H 7.478659542050853 0.9461281530053838 1.4043600276971255
O -4.074572550094266 -6.888635680992465 3.5517997980207476
H -4.316370134647812 -7.535952122304918 2.8724746109338457
H -4.006023066994397 -7.414782955025267 4.3626215778802875
C -12.615429460257413 -14.468112185624868 2.3504615115850376
O -12.870589858000528 -13.52020865382653 3.035436199531831
O -12.360269062514297 -15.41601571742321 1.6654868236382443
O -3.925718378333515 0.13810103295733356 18.14510975815123
H -2.9606551612645187 0.2224836313166687 18.167468672583006
H -4.220355091593686 0.6097292329649591 18.938657483531884
O -1.9811642098878135 5.387765828574763 19.047318776314587
H -2.407828048079577 5.257364138001257 18.1871323284005
H -1.073004694227894 5.080261057111249 18.90714369313818
O -1.3420682770046861 -13.344079005721238 -7.981040014449152
H -1.4495041719369341 -12.919298862899229 -7.116756082142053
H -1.6813276045286782 -14.241434988238307 -7.844594810690311
O 1.6275891605189754 9.129667888019748 -11.97039776263373
H 1.711972011281068 9.145049380862243 -12.935597379850398
H 1.784277150856168 10.048944181127869 -11.707069232251088
O 8.778025137613238 0.2653221835783195 7.999491877965904
H 9.607456565015264 0.6692012392623576 8.29595869317059
H 8.4643367861423 -0.2220532027483793 8.776039877290058
O -13.695131131220736 -2.1565028381023055 5.1412129202393935
H -14.080269798305178 -2.3727256030867876 4.278726236331239
H -14.401606015909127 -1.6770540431786503 5.599453069779763
O 4.94330395342531 -16.23009300209965 -7.694776928793334
H 5.09138625642871 -16.491419342880288 -8.616051878008502
H 5.0754465038967655 -17.049613276922873 -7.194890131799691
O 10.637276049318238 14.772624774753591 14.203530793371348
H 11.59617401161946 14.635493443446977 14.22955103104591
H 10.290690462660532 13.93709004062575 13.856079957299466
O 17.435781575356046 -3.5888311770135335 4.476177289013633
H 18.262700702499984 -3.101169903443135 4.344425263134691
H 17.107761790924734 -3.740599951276495 3.5771048756450803
O 7.516245306700066 9.081123032335169 -7.060714254078363
H 7.425214454616013 9.08010091919831 -8.025431671850836
H 7.467637941565949 8.143747135114289 -6.820036677922894
O 8.605101506752455 -15.382057254775603 -1.313372561741816
H 8.812526407567042 -16.114456463802373 -1.9129838241769228
H 9.158292098843543 -15.55201371880474 -0.5361615778663795
O -10.844886367765751 1.4301227723331538 -7.3914414478016734
H -9.924589887658353 1.2488280966184657 -7.634657372772553
H -10.806713458471807 1.5949136698160506 -6.4373194779242295
O 7.569947395231434 -8.831904660014104 -5.246507536113375
H 6.8827456362331105 -9.055280091837055 -4.600888053920093
H 7.547006566157465 -9.567583228734243 -5.876755666762952
O -1.3246087148593686 9.477364814711947 18.31912004995572
H -0.668235855003041 9.90171997292103 18.891889397464272
H -0.7915083801093532 8.983746953399308 17.67794348739081
O 6.341801503412395 -7.7586964009780175 9.393205806969107
H 6.265394582112727 -7.7785011938328115 8.427422648357668
H 5.913856926082658 -6.926525885676383 9.64483572668591
O -12.095471015255388 -5.226685543151045 -12.59093446235996
H -12.262701724008908 -4.794664233585971 -11.739841732376043
H -12.042620063159072 -6.16844424971188 -12.368990190572259
O -3.3955809524065215 -4.512456101160749 -3.79750550766275
H -4.130098699145936 -3.9690027419806313 -3.4748454961634954
H -3.1484579353871145 -4.097132557006961 -4.637385566022729
O 17.353095462911405 -5.247941791956539 -8.547326460359638
H 17.72166820490864 -4.569862688936274 -9.133270332077633
H 17.090327755265008 -5.960069988384858 -9.149645734474298
O 4.2631812930961575 -4.994204866145186 4.527504224236331
H 4.657787812761802 -5.4949795309678535 3.797793468793387
H 5.009359186685487 -4.506046732269558 4.906822206606871
O 6.714478818873963 12.619388616878574 -14.54771264759743
H 6.722614846098766 12.472913066575764 -15.50554670166133
H 6.859820118549946 13.572980734089287 -14.455517610301023