194

C -5.0710522388059704 1.0783507462686561 0.47044029850746183
C -3.8153522388059704 0.1782507462686569 0.19534029850746193
C -4.11845223880597 -1.3219492537313435 0.5608402985074619
C -2.96945223880597 -2.3874492537313436 0.7034402985074619
C -2.52015223880597 0.7359507462686565 0.7384402985074618
C -2.20305223880597 0.7852507462686571 2.097440298507462
C -1.5755522388059702 1.205650746268656 -0.18965970149253808
C -0.9533522388059701 1.2695507462686564 2.508640298507462
H -2.91125223880597 0.4298507462686567 2.840840298507462
C -0.32655223880597006 1.6562507462686575 0.21554029850746192
H -1.7850522388059702 1.178550746268657 -1.2573597014925382
C 0.004447761194029898 1.6956507462686563 1.569740298507462
H -0.7158522388059702 1.2676507462686573 3.5705402985074617
H 0.3943477611940298 1.9193507462686572 -0.5551597014925382
C -1.76045223880597 -2.1592492537313435 -0.1734597014925381
C -0.5287522388059701 -1.936549253731343 0.464840298507462
C -1.8068522388059702 -2.121249253731343 -1.5681597014925381
C 0.6114477611940299 -1.614449253731343 -0.2582597014925381
H -0.4544522388059702 -1.954049253731343 1.5506402985074619
C -0.6479522388059701 -1.8270492537313432 -2.2998597014925384
H -2.74345223880597 -2.290549253731343 -2.092259701492538
C 0.5698477611940298 -1.5506492537313434 -1.6506597014925382
H 1.5072477611940298 -1.351949253731343 0.2991402985074618
H -0.7173522388059701 -1.7640492537313435 -3.3840597014925375
C 1.7791477611940298 -1.082849253731343 -2.4255597014925376
H 1.4739477611940297 -0.9102492537313429 -3.464259701492538
H 2.1252477611940295 -0.1337492537313434 -2.0010597014925384
C 1.3965477611940298 2.0964507462686566 1.997440298507462
H 1.51704776119403 1.8448507462686567 3.057640298507462
H 2.1256477611940294 1.5207507462686571 1.4165402985074618
C 3.94864776119403 -1.4275492537313434 -3.522959701492538
H 4.81734776119403 -2.087049253731343 -3.615159701492538
H 3.4305477611940303 -1.3641492537313429 -4.484459701492538
H 4.26984776119403 -0.441449253731343 -3.176459701492538
C 2.60904776119403 -3.4296492537313434 -2.8992597014925376
H 1.9825477611940296 -3.869549253731343 -2.119359701492538
H 2.06294776119403 -3.373349253731343 -3.845759701492538
H 3.5215477611940305 -4.019849253731343 -3.0234597014925377
C 3.7281477611940304 -2.060049253731343 -1.156659701492538
H 3.9048477611940298 -1.032549253731343 -0.8295597014925382
H 3.12924776119403 -2.623249253731343 -0.4404597014925382
H 4.68244776119403 -2.5769492537313434 -1.3005597014925383
C 3.1110477611940297 3.755250746268656 2.588740298507462
H 3.40124776119403 4.809350746268656 2.534540298507462
H 2.9823477611940303 3.461750746268656 3.634840298507462
H 3.86514776119403 3.1392507462686563 2.091540298507462
C 1.99744776119403 3.9574507462686572 0.40494029850746194
H 2.67914776119403 3.230350746268657 -0.04295970149253803
H 1.03214776119403 3.981150746268657 -0.10175970149253821
H 2.4399477611940297 4.958250746268657 0.368240298507462
C 0.7418477611940297 4.4992507462686575 2.475440298507462
H -0.18475223880597014 4.424250746268656 1.901240298507462
H 0.57844776119403 4.189650746268656 3.511940298507462
H 1.1210477611940297 5.524350746268658 2.4432402985074617
N 3.00114776119403 -2.025349253731343 -2.490159701492538
N 1.7831477611940298 3.586450746268657 1.862540298507462
C -3.55075223880597 -3.8435492537313434 0.6444402985074619
H -2.62515223880597 -2.2736492537313433 1.7424402985074618
H -4.67195223880597 -1.3478492537313436 1.5102402985074619
H -4.83415223880597 -1.6757492537313432 -0.1945597014925382
H -3.7169522388059697 0.17335074626865676 -0.900559701492538
H -3.9132522388059705 -4.043149253731343 -0.34225970149253815
H -4.35435223880597 -3.9354492537313432 1.3449402985074619
H -2.78115223880597 -4.545049253731343 0.8904402985074619
H -5.24235223880597 1.138950746268657 1.5249402985074618
H -5.92805223880597 0.6501507462686567 -0.006059701492538094
H -4.89895223880597 2.059650746268657 0.08004029850746197
C 4.424239273555928 -1.047938739472139 2.4337252158614993
O 4.02126560118879 -0.49849039989695854 1.4200713103705678
O 4.192767059836622 -0.6713874306093497 3.588394514911926
O 5.125883668798915 -2.065563366217438 2.461718894890785
O -5.927616223207886 -7.078898294698715 3.2683853802224805
H -5.697086185558902 -6.939320874843343 2.3376107552417196
H -5.146645746199755 -6.770086919020969 3.7517926542613678
O -6.737498426689276 -4.837462867367228 2.007998864669466
H -7.481811205027377 -5.027382550503346 1.4173243698247204
H -7.123343838325291 -4.277142846189587 2.6980182386633573
O -0.17429032698348035 -7.9469879986123075 2.475915207583465
H -0.14460844756305336 -8.0091530300483 1.5093636819002065
H 0.491386030239751 -8.585825493270784 2.7720968868826557
O -3.8211041667255143 6.202218534005076 -5.620404465290254
H -4.368803090266243 5.951713868164777 -4.86129929573562
H -4.2444011751059705 7.00515864075126 -5.9596223480361115
O -3.7039258864346745 7.072046877588822 6.5907291558392656
H -4.5430160596960905 7.342430334146371 6.9929577282407305
H -3.171218313654784 6.769524844652404 7.341505424637749
O -8.304708594311998 3.7974061785183437 -3.828417379138396
H -7.653322061820999 3.906527095640951 -3.119364794603459
H -8.930163381602542 4.5235807723862 -3.685453353676766
O 8.486938065140002 -2.511738821457166 -1.1773395946966272
H 8.625626258653968 -2.1957514421044544 -2.0828145628595465
H 8.095070734867264 -1.751652590505004 -0.7216304097092606
O 3.7698585804088687 -3.596548098666964 -11.471001970519858
H 3.5202836393518213 -2.741924196679696 -11.088513157809695
H 3.5173221686090255 -4.239723001883863 -10.791654232695413
O -3.1938466432629413 -5.256338145766317 -8.741762087816795
H -3.5214813032600323 -4.552891820509187 -8.161429291956669
H -3.986524576632337 -5.770491164355494 -8.956867438110228
O 2.1847850732487313 4.745318192254843 7.263708941576786
H 1.2259109599440083 4.7832193075655365 7.129205048724989
H 2.446593476482194 5.674697969396936 7.345388401269297
O 2.2526132646768753 -6.527315854469489 -2.685989457494357
H 2.4852125470683797 -6.216910833743157 -1.7980065444612037
H 2.043592677443109 -7.46492988216785 -2.558897862667214
O -6.664360209347845 6.787563631233434 3.4879651807316145
H -6.801996123919529 6.201155157904506 4.2470098528873805
H -5.7458090685635295 7.081271301699132 3.5826306463114257
O -6.943140107360669 4.244910196456041 5.842743164835134
H -7.229618618028828 3.64479221342373 6.547552235624227
H -6.081213414661017 4.567532342102968 6.145991036798005
O -2.7800109125311154 3.2079840541165594 -7.079680015230414
H -3.2064075759071033 3.069675725371331 -6.220596754677906
H -1.8329193974836042 3.1995553534891377 -6.87496420384609
O 7.438904269924166 -0.2679239792546939 1.2286326359909692
H 7.346886573439546 -0.8306550422677155 2.012108130919752
H 6.585911919498255 0.18755063216852852 1.1661116574018282
O 1.9787496318898157 7.0908619835914015 -1.3676662753020505
H 1.9717792839974022 7.064810739776387 -0.39903832616680573
H 1.5171595859948015 6.279282513126153 -1.626964051902592
O 0.6962375091142161 -1.7721395550855796 6.030827434510787
H 0.5191105687204223 -0.8929830988734626 5.663843334872551
H 0.3690403006829457 -1.7160297609539472 6.941187595160015
O 8.180621257956533 -0.13660401985449422 3.975939301046614
H 8.372542264169065 0.036846637136965565 4.909774700816618
H 7.2139230080563586 -0.09471471689907185 3.923961187981131
O 5.275863633475572 8.112653015558868 -1.7116508951179281
H 5.060957275981415 8.055026792698758 -0.7685380530637698
H 6.01686118933977 7.497868126825965 -1.82084845502178
O -3.589316339131029 4.90982075368301 -3.121916057113281
H -3.365476891265841 5.310625985917168 -2.2685589077947026
H -3.298518299477902 3.9898783053829314 -3.0318919700612375
C -2.26920588645116 18.700543135930797 12.69410851797348
O -1.3371206892233722 18.346194112107177 12.031936175056561
O -3.2012910836789477 19.054892159754417 13.356280860890399
O 15.374007279584415 5.138180400507034 -9.229005751205019
H 15.332809280411954 4.973434593633323 -10.183012512649464
H 16.10087563698628 5.77160157735824 -9.132042108408648
O 1.548459993016721 7.948175263793321 11.917055275641507
H 1.6278112559010798 7.679509266516881 10.989429642163154
H 0.9150156554989448 7.31692488781906 12.29019489883773
O -17.613769193115566 6.743654479585656 9.89279252224879
H -18.18100479711558 6.035535400710091 10.233054915979222
H -16.920399896899532 6.274196260864666 9.405134912608386
O -1.856558251048465 8.657557623236896 0.010596104993147115
H -2.483525732377332 9.25026223136507 -0.430516558347823
H -2.1517758466067516 7.771188758118569 -0.24661732879605625
O -0.18788398617503876 6.4704754479202675 18.998879929325074
H -0.2014649184051891 6.114238387696627 19.899922698622394
H 0.3796917970477329 5.854173961425866 18.51206153162029
O -8.390320435095957 8.748798657970383 -8.928960551039404
H -8.500028918979199 8.692027514687137 -9.890058070937545
H -7.489366294377713 8.426184709886375 -8.776763898236863
O 16.19374246542365 16.035789435373694 3.438879705834972
H 15.800892738806116 15.626189365975565 2.65347265700896
H 17.0227222647684 15.550440409420307 3.5661226214901802
O -3.9802005200633364 -17.715812708426796 7.680877687478754
H -4.035904019458707 -17.755491709006414 8.647464493703685
H -4.315190852721262 -18.577804279940352 7.391544053130243
O 4.224225009577967 -10.17571758483874 -16.946999130191283
H 4.157054035402961 -9.913934641719887 -17.877550100219477
H 3.4225072391404936 -9.811197404057813 -16.542851139143195
O -20.19134851971234 3.690079611829926 -7.990278816402164
H -19.842487985573115 3.530512779123736 -8.880111447024468
H -20.217396232884603 2.8090835367213796 -7.587625893176925
O 4.75846172826535 7.782559719961957 3.4757499434180708
H 4.973228184423576 7.578521330712645 2.55313894092472
H 5.601769982240545 8.074511677408656 3.853317404437088
O -12.697217665253339 9.992374014840522 -6.015527402095592
H -12.463979095763499 9.868342315586766 -5.083227415941694
H -12.289432292698287 10.840083254061803 -6.248039939325337
O -6.621467729121858 14.217105225913205 -4.374807682342961
H -6.945603010562465 14.14861461667391 -5.28541885769249
H -7.324739848135952 14.696348444722313 -3.9114544605532418
O -3.4010223297468203 -12.505493594758695 13.593286157045464
H -3.3410686302616845 -12.50447656403888 12.626139903128013
H -2.8330540930458934 -11.768466696673292 13.863777151160694
O -0.28726025249153775 5.164454518029858 -8.33993700386983
H 0.2068532146420985 4.917091348937989 -9.135946238159235
H -0.148324717200226 4.418697967723296 -7.737022392164181
O 23.14282341912407 3.1251009708732544 6.835466791892648
H 23.31434847351336 3.4868160058231688 7.717911547165142
H 22.847622811875517 2.2183381938440316 7.0075127507941595
O -6.530313089790403 -10.155319497971284 16.798796831720246
H -6.525831069507831 -9.186408869154453 16.786169014808326
H -7.047148785772593 -10.376723554087452 17.587988222698325
O -0.8627023523844333 8.747632231336219 11.455373985447
H -0.7967714248932174 8.916317458720737 12.40730137961232
H -1.7180071763011922 8.303384036462848 11.35507870222554
O 10.85911320682504 7.604025689036928 -10.851059479691479
H 10.36659488179204 7.629018941575722 -10.016932155037608
H 10.491136790839443 6.838404077519174 -11.31729852734338
O 1.9693480427240502 -6.573142541579844 -9.832603091992983
H 2.1691082839464597 -7.269755442511675 -10.475871052629998
H 1.726892208628015 -7.0584874240485895 -9.029722367430365