194

C -5.0710522388059704 1.0783507462686561 0.47044029850746183
C -3.8153522388059704 0.1782507462686569 0.19534029850746193
C -4.11845223880597 -1.3219492537313435 0.5608402985074619
C -2.96945223880597 -2.3874492537313436 0.7034402985074619
C -2.52015223880597 0.7359507462686565 0.7384402985074618
C -2.20305223880597 0.7852507462686571 2.097440298507462
C -1.5755522388059702 1.205650746268656 -0.18965970149253808
C -0.9533522388059701 1.2695507462686564 2.508640298507462
H -2.91125223880597 0.4298507462686567 2.840840298507462
C -0.32655223880597006 1.6562507462686575 0.21554029850746192
H -1.7850522388059702 1.178550746268657 -1.2573597014925382
C 0.004447761194029898 1.6956507462686563 1.569740298507462
H -0.7158522388059702 1.2676507462686573 3.5705402985074617
H 0.3943477611940298 1.9193507462686572 -0.5551597014925382
C -1.76045223880597 -2.1592492537313435 -0.1734597014925381
C -0.5287522388059701 -1.936549253731343 0.464840298507462
C -1.8068522388059702 -2.121249253731343 -1.5681597014925381
C 0.6114477611940299 -1.614449253731343 -0.2582597014925381
H -0.4544522388059702 -1.954049253731343 1.5506402985074619
C -0.6479522388059701 -1.8270492537313432 -2.2998597014925384
H -2.74345223880597 -2.290549253731343 -2.092259701492538
C 0.5698477611940298 -1.5506492537313434 -1.6506597014925382
H 1.5072477611940298 -1.351949253731343 0.2991402985074618
H -0.7173522388059701 -1.7640492537313435 -3.3840597014925375
C 1.7791477611940298 -1.082849253731343 -2.4255597014925376
H 1.4739477611940297 -0.9102492537313429 -3.464259701492538
H 2.1252477611940295 -0.1337492537313434 -2.0010597014925384
C 1.3965477611940298 2.0964507462686566 1.997440298507462
H 1.51704776119403 1.8448507462686567 3.057640298507462
H 2.1256477611940294 1.5207507462686571 1.4165402985074618
C 3.94864776119403 -1.4275492537313434 -3.522959701492538
H 4.81734776119403 -2.087049253731343 -3.615159701492538
H 3.4305477611940303 -1.3641492537313429 -4.484459701492538
H 4.26984776119403 -0.441449253731343 -3.176459701492538
C 2.60904776119403 -3.4296492537313434 -2.8992597014925376
H 1.9825477611940296 -3.869549253731343 -2.119359701492538
H 2.06294776119403 -3.373349253731343 -3.845759701492538
H 3.5215477611940305 -4.019849253731343 -3.0234597014925377
C 3.7281477611940304 -2.060049253731343 -1.156659701492538
H 3.9048477611940298 -1.032549253731343 -0.8295597014925382
H 3.12924776119403 -2.623249253731343 -0.4404597014925382
H 4.68244776119403 -2.5769492537313434 -1.3005597014925383
C 3.1110477611940297 3.755250746268656 2.588740298507462
H 3.40124776119403 4.809350746268656 2.534540298507462
H 2.9823477611940303 3.461750746268656 3.634840298507462
H 3.86514776119403 3.1392507462686563 2.091540298507462
C 1.99744776119403 3.9574507462686572 0.40494029850746194
H 2.67914776119403 3.230350746268657 -0.04295970149253803
H 1.03214776119403 3.981150746268657 -0.10175970149253821
H 2.4399477611940297 4.958250746268657 0.368240298507462
C 0.7418477611940297 4.4992507462686575 2.475440298507462
H -0.18475223880597014 4.424250746268656 1.901240298507462
H 0.57844776119403 4.189650746268656 3.511940298507462
H 1.1210477611940297 5.524350746268658 2.4432402985074617
N 3.00114776119403 -2.025349253731343 -2.490159701492538
N 1.7831477611940298 3.586450746268657 1.862540298507462
C -3.55075223880597 -3.8435492537313434 0.6444402985074619
H -2.62515223880597 -2.2736492537313433 1.7424402985074618
H -4.67195223880597 -1.3478492537313436 1.5102402985074619
H -4.83415223880597 -1.6757492537313432 -0.1945597014925382
H -3.7169522388059697 0.17335074626865676 -0.900559701492538
H -3.9132522388059705 -4.043149253731343 -0.34225970149253815
H -4.35435223880597 -3.9354492537313432 1.3449402985074619
H -2.78115223880597 -4.545049253731343 0.8904402985074619
H -5.24235223880597 1.138950746268657 1.5249402985074618
H -5.92805223880597 0.6501507462686567 -0.006059701492538094
H -4.89895223880597 2.059650746268657 0.08004029850746197
C 2.4291913470892195 -1.5551767821630795 3.7183990847041954
O 3.5604781045089595 -1.1000021560663464 3.6492483013071233
O 1.420624910496099 -1.0349788320473472 3.227665654241949
O 2.117844799924167 -2.6064563515644155 4.28982097694122
O -0.6504863230739681 -6.116842947619552 3.95539438163821
H -0.42500865109829994 -5.263827015766737 3.5547811063393144
H -0.21137765921553225 -6.093270635724221 4.818869842630801
O -7.523000066343303 -2.2498092092657718 2.2308339263631183
H -7.812906104167117 -2.1327935990797533 1.3136484526959364
H -7.462168683870647 -3.21113692280609 2.3362403511474223
O 5.836809346060348 4.658579462036159 -0.38867150261959793
H 4.887524921402152 4.752131767515949 -0.5591836844154283
H 5.948609315774473 5.005272247671521 0.5092521152122926
O -11.685816064482175 0.8461552722737906 1.529819917159542
H -12.09701336238943 1.6372783003177163 1.909304427505333
H -12.434074535751224 0.33563355616602675 1.185670557351198
O 8.97352525217221 1.7674508246373257 -4.784304228177902
H 9.789036511164724 1.9232194848560085 -4.284659486536277
H 8.366224335064103 1.3911260012760682 -4.1296843631403615
O 4.503589096556526 -9.928963042005362 -4.8135457800371295
H 4.203987437350321 -9.103866767228983 -5.22393868939477
H 4.733479554502525 -10.49461661422195 -5.5659740875083425
O -3.6604001122776655 4.3075006206603605 -4.047884332713329
H -3.2641009469765083 4.944819044268711 -4.660860315449174
H -4.1442077532437525 3.697562394077565 -4.624831011875159
O 2.5890463252045874 7.041170221738253 -3.058158353938235
H 2.5876783564161463 7.7974447920072825 -2.4523413354204417
H 1.6733922987077758 6.724642040841782 -3.039461863397294
O 2.257124282021512 6.764575436972568 5.909615944909397
H 1.8761093101147743 6.81705460240183 6.799020737609975
H 3.1815392100886895 6.519133294971581 6.065105944576652
O 3.8272176245764973 -1.8194476127765915 6.486693594464777
H 3.415875942692792 -1.3975525818280743 7.255959452608783
H 3.30100830365979 -2.6216321156649722 6.350437518614569
O -0.12537811268582688 -8.648932908278756 -2.2209708148157343
H -0.3098211615113686 -8.387307373085468 -3.135574662377489
H 0.8409564732241748 -8.711550109392572 -2.1857785074344673
O -2.2808013310175137 1.0837396841943623 6.367628423150084
H -1.7109577110061298 1.2590272355456287 5.603743693643334
H -2.752507552617417 1.9190642714260426 6.504332551727697
O -4.5699190981304225 6.89862085231667 5.034712959957986
H -4.059735502021029 7.017313374825268 5.8499381682663625
H -4.048541262194205 7.362777071301443 4.362636996340609
O 6.558981511045115 -4.374516328127328 -5.352357105303561
H 6.22346370451673 -4.563440614592981 -6.241571799506161
H 6.3316902711037795 -3.4434690498071188 -5.209348007416537
O -4.780497183083601 0.560590664017393 -6.162425085948232
H -4.050966169254838 0.12115885309603018 -6.624649642102869
H -5.184549704379689 1.1207908628289536 -6.842042067479568
O -8.631225729521113 -8.641793263209674 -3.10428785477567
H -8.70340853466926 -8.099861232393964 -2.304246184912839
H -9.529758266700812 -8.977685562842462 -3.241319190523411
O 5.649809748957516 -7.108132389707646 -2.492775270179428
H 5.4126322677891885 -6.78885823036201 -1.6091587184440135
H 6.612300040178615 -7.213049682679458 -2.4531931373340266
O -6.967649854244091 3.4084692131501813 3.9385104563744395
H -6.98926054124082 3.3675368106961185 4.906407596331403
H -6.960659295838934 4.357820999301891 3.7444891623788013
O 0.8495105565319986 -3.6480439246696648 1.3274181034371015
H 0.908949406257196 -3.5228425806420463 2.286458771759892
H 1.6501066708847913 -4.147236865011045 1.1064787128872582
O 4.3357755796101705 9.05152672381525 -4.5470875925833605
H 3.560921584095408 8.94826603701856 -5.119718252867181
H 4.363678871686145 8.226295544644843 -4.039961521949696
C 7.682671931219804 14.620596116651726 -0.46338017976162194
O 7.070175664951727 15.169600920943736 -1.33301246180499
O 8.29516819748788 14.071591312359715 0.406252102281746
O -5.973493409115172 16.3325992307812 -1.883715391078863
H -6.930683174552965 16.321510320529505 -2.0341552325789687
H -5.769628527495579 15.426767889808316 -1.6064598482064136
O -13.536564140161937 1.719401140032264 -11.754645995615897
H -13.079755710221985 0.9140905960251868 -12.040597640036458
H -13.019747100105338 2.435691945618465 -12.15313008970223
O -7.139531227329237 3.174281221298739 -4.184498066125971
H -6.990695927393764 3.6249800335532054 -5.029297445283846
H -7.86600126015376 2.5608377317634012 -4.3712875756136365
O 12.026938612294707 -0.006429520148780732 -7.921793847398233
H 11.215647122974158 0.44174163303566427 -8.204488194192384
H 12.736962383686526 0.5622446710369067 -8.255616933235382
O 3.4988736099746918 17.554441753181507 -9.466510251700907
H 3.382497707643357 17.641812782024978 -10.42452398311367
H 3.3519217788006914 18.451222204743324 -9.130129626053133
O -6.269059579516933 -6.456541734670708 -5.628363199033396
H -6.607183005984238 -7.268970331742548 -6.034072060205902
H -6.85570727756145 -5.7638664045561345 -5.96749047562691
O 8.682818436680808 4.773977503926443 10.778613436072588
H 9.049578706396584 5.613054571012882 11.095479238815058
H 8.042101667269922 4.525719330554743 11.461849738569628
O -19.848227135985635 6.820552260109984 -5.841273084018293
H -20.156813873969675 7.645946101201424 -6.2443445282173204
H -20.641214434791486 6.264530362268812 -5.810084346408329
O -12.175949897512403 14.670282598001092 2.6152216103736077
H -12.238491613531032 15.457389419165779 3.1769321610431387
H -11.227128007772007 14.475111521403994 2.59057984279515
O 2.098259081197722 -13.516265054599168 1.5583707149788675
H 1.6714064145028154 -12.826437619448242 2.088372854171288
H 2.609967393197678 -13.022600999181613 0.9000301130721888
O -10.519604280645314 -0.4501555379212272 -11.14245502213428
H -9.96889755208903 0.1799988178293916 -10.653993207914006
H -10.494229321130996 -0.12496409572035849 -12.054906983417155
O -7.219472749288174 -10.820317089577008 -12.987369612560926
H -6.910765940388757 -9.92872676869857 -12.766611458113525
H -6.445430572138312 -11.243413321817307 -13.388381121818659
O -0.18616683148049162 -14.21061841460158 6.460620016847255
H -0.016933891504147702 -14.414637783771818 5.528577278594152
H 0.6974306554713827 -14.076113456650734 6.834953880716092
O -15.295700606869023 -7.5949280041162055 -6.773974931601278
H -14.800775439151167 -7.711031147781682 -5.949028572563038
H -15.755367416841981 -8.439754209211108 -6.892030220742543
O -10.329666899098243 7.469868915150458 7.8018167730848065
H -11.008584505266308 7.817896057151218 8.39924070076582
H -10.756233281415536 6.70830555716363 7.381074194364084
O -7.28754791286152 9.8853340763246 6.3750414718008805
H -6.627056711132304 9.92237724269452 5.6669831880674115
H -6.763686436459285 9.95188099764203 7.187508458887029
O 4.77019336362218 -16.209911709538375 -6.717384594662071
H 5.70335121483417 -16.439168561342562 -6.842384904750707
H 4.684925252487919 -15.339827740881862 -7.135290302939099
O -14.316764850275565 9.480993721892313 0.06164752493322645
H -13.557345412915067 10.042565944562053 0.27817954054485305
H -14.054398356883148 9.0390690793397 -0.7598318587093029
O 9.23342943598587 -1.7115006556636558 3.4897924254856436
H 9.366204824386973 -2.648269389652605 3.6990826358531574
H 9.297243982884495 -1.6762212255335343 2.5235393480189705
O -0.5942610678306401 -17.831273289186758 -7.510071780809213
H -0.41287911745332195 -17.32172660112677 -6.706063001215096
H -0.36401850294421134 -17.22383179271439 -8.229074655614266