194

C -5.0710522388059704 1.0783507462686561 0.47044029850746183
C -3.8153522388059704 0.1782507462686569 0.19534029850746193
C -4.11845223880597 -1.3219492537313435 0.5608402985074619
C -2.96945223880597 -2.3874492537313436 0.7034402985074619
C -2.52015223880597 0.7359507462686565 0.7384402985074618
C -2.20305223880597 0.7852507462686571 2.097440298507462
C -1.5755522388059702 1.205650746268656 -0.18965970149253808
C -0.9533522388059701 1.2695507462686564 2.508640298507462
H -2.91125223880597 0.4298507462686567 2.840840298507462
C -0.32655223880597006 1.6562507462686575 0.21554029850746192
H -1.7850522388059702 1.178550746268657 -1.2573597014925382
C 0.004447761194029898 1.6956507462686563 1.569740298507462
H -0.7158522388059702 1.2676507462686573 3.5705402985074617
H 0.3943477611940298 1.9193507462686572 -0.5551597014925382
C -1.76045223880597 -2.1592492537313435 -0.1734597014925381
C -0.5287522388059701 -1.936549253731343 0.464840298507462
C -1.8068522388059702 -2.121249253731343 -1.5681597014925381
C 0.6114477611940299 -1.614449253731343 -0.2582597014925381
H -0.4544522388059702 -1.954049253731343 1.5506402985074619
C -0.6479522388059701 -1.8270492537313432 -2.2998597014925384
H -2.74345223880597 -2.290549253731343 -2.092259701492538
C 0.5698477611940298 -1.5506492537313434 -1.6506597014925382
H 1.5072477611940298 -1.351949253731343 0.2991402985074618
H -0.7173522388059701 -1.7640492537313435 -3.3840597014925375
C 1.7791477611940298 -1.082849253731343 -2.4255597014925376
H 1.4739477611940297 -0.9102492537313429 -3.464259701492538
H 2.1252477611940295 -0.1337492537313434 -2.0010597014925384
C 1.3965477611940298 2.0964507462686566 1.997440298507462
H 1.51704776119403 1.8448507462686567 3.057640298507462
H 2.1256477611940294 1.5207507462686571 1.4165402985074618
C 3.94864776119403 -1.4275492537313434 -3.522959701492538
H 4.81734776119403 -2.087049253731343 -3.615159701492538
H 3.4305477611940303 -1.3641492537313429 -4.484459701492538
H 4.26984776119403 -0.441449253731343 -3.176459701492538
C 2.60904776119403 -3.4296492537313434 -2.8992597014925376
H 1.9825477611940296 -3.869549253731343 -2.119359701492538
H 2.06294776119403 -3.373349253731343 -3.845759701492538
H 3.5215477611940305 -4.019849253731343 -3.0234597014925377
C 3.7281477611940304 -2.060049253731343 -1.156659701492538
H 3.9048477611940298 -1.032549253731343 -0.8295597014925382
H 3.12924776119403 -2.623249253731343 -0.4404597014925382
H 4.68244776119403 -2.5769492537313434 -1.3005597014925383
C 3.1110477611940297 3.755250746268656 2.588740298507462
H 3.40124776119403 4.809350746268656 2.534540298507462
H 2.9823477611940303 3.461750746268656 3.634840298507462
H 3.86514776119403 3.1392507462686563 2.091540298507462
C 1.99744776119403 3.9574507462686572 0.40494029850746194
H 2.67914776119403 3.230350746268657 -0.04295970149253803
H 1.03214776119403 3.981150746268657 -0.10175970149253821
H 2.4399477611940297 4.958250746268657 0.368240298507462
C 0.7418477611940297 4.4992507462686575 2.475440298507462
H -0.18475223880597014 4.424250746268656 1.901240298507462
H 0.57844776119403 4.189650746268656 3.511940298507462
H 1.1210477611940297 5.524350746268658 2.4432402985074617
N 3.00114776119403 -2.025349253731343 -2.490159701492538
N 1.7831477611940298 3.586450746268657 1.862540298507462
C -3.55075223880597 -3.8435492537313434 0.6444402985074619
H -2.62515223880597 -2.2736492537313433 1.7424402985074618
H -4.67195223880597 -1.3478492537313436 1.5102402985074619
H -4.83415223880597 -1.6757492537313432 -0.1945597014925382
H -3.7169522388059697 0.17335074626865676 -0.900559701492538
H -3.9132522388059705 -4.043149253731343 -0.34225970149253815
H -4.35435223880597 -3.9354492537313432 1.3449402985074619
H -2.78115223880597 -4.545049253731343 0.8904402985074619
H -5.24235223880597 1.138950746268657 1.5249402985074618
H -5.92805223880597 0.6501507462686567 -0.006059701492538094
H -4.89895223880597 2.059650746268657 0.08004029850746197
C -3.6437599851225415 -0.15469830573383792 -2.8875904804359127
O -2.4236742409694205 -0.1808504456683402 -2.9374135784043274
O -4.366579852171014 -1.119906298142396 -2.614576863027057
O -4.344463198313813 0.841036205135742 -3.102476904592368
O -0.26501006745199374 1.509430033249932 -3.089223546812906
H -0.6611587571571675 1.0646193441262022 -3.8535382878627877
H 0.6135297634229835 1.7733536017956308 -3.401431906457982
O 4.915750429773112 -4.786505180345073 2.6791772407512866
H 4.535998445952833 -4.295037770821458 1.9353926126090337
H 4.35287334959513 -4.546044502388666 3.4303829377924195
O 1.1733120605286746 0.9434986900904865 -8.198096151773692
H 0.921681985357119 0.3533345881659029 -7.471903343375875
H 1.1606251957340419 0.3711806319993811 -8.979922876914568
O -0.6444899691119739 -6.056800181962 -1.9803389572184118
H -0.6397590014946359 -6.313423311141336 -1.0459463500047148
H 0.2828337524562534 -5.850234208467243 -2.171030221598863
O 2.6707307094038626 4.324187207028988 -5.037606636726586
H 3.029267544116708 3.810717552540984 -4.2981692769901025
H 2.7940888425689736 5.245623337828166 -4.764293314439035
O 4.005808939440488 3.7618940059774184 -10.30648855714048
H 3.1180147492823544 3.383206907598483 -10.220553032805027
H 4.4864947118163885 3.112494476829817 -10.841449662341835
O -2.055882136384463 -2.78776136461742 3.782237437269919
H -2.0308961303568083 -2.8224894183630935 4.750295812930098
H -1.5523852351525789 -3.5685729523189935 3.506944721672798
O -9.80223456530797 1.2693635739613223 3.2193174939873406
H -10.029879609963285 1.3169903996628882 2.2786386029636962
H -10.645071523146635 1.0710314589863925 3.6543487330620037
O 2.626282788649132 -5.833401380845057 3.735169589275
H 2.222586977974397 -5.922398032372462 2.8587697687817606
H 2.990948010047206 -6.712910222787105 3.9152957049507933
O 4.07409172747236 5.650696446700387 6.664854918153384
H 3.329635181491061 5.032468260209745 6.715310021701871
H 4.833911761380673 5.085773478038179 6.458705700717452
O -2.1176993605427485 8.625414771394759 -0.3586468872578201
H -1.177693765003225 8.448509515779412 -0.5137641583466852
H -2.5630391166085853 7.8307137578546655 -0.6889266853768838
O 1.5046092627944097 -1.5934299025689365 2.681235460608322
H 1.7028292714420106 -1.5232444813597992 3.6271478200378007
H 2.371954616077667 -1.5250025574084514 2.2546306307338493
O -8.218377737436901 2.58696595104972 5.09603172572104
H -7.973734832430503 3.3701879567933846 4.580589686643025
H -7.529320243792279 1.9405463757514854 4.880849367188938
O 1.0597747399662603 -8.137011228955988 -2.9120617971381364
H 1.3545472193248231 -8.823733983352952 -3.5288992156742145
H 0.8905153150381189 -8.619005711219847 -2.088657576575607
O -3.4190338511601626 4.779117954523047 -1.0803998880140668
H -4.326817803290304 4.44268049488123 -1.0391023226530942
H -2.879294266134069 4.034330876606317 -0.7755469181677491
O 5.48000064485937 -3.9794119198835007 -9.135229162654202
H 5.071378370494559 -3.6834584928854612 -9.962517965214133
H 4.875011301637298 -3.6612161933644307 -8.448424009417327
O -1.763878197452374 7.195540708523883 5.26157192289898
H -2.58606444085278 6.83020461785382 4.901701558855143
H -1.7162986098799942 6.8275276885321645 6.156705736506207
O 5.033020582538159 0.002311737616461418 3.21958433470237
H 5.721798475222084 -0.2677800935935042 2.5938026042535336
H 4.248691026102797 0.12779778029142475 2.6645687094307138
O -5.856440178769622 -2.7432827736309355 -4.589511180184339
H -6.613923007845043 -3.257096484094065 -4.271419068531111
H -5.695148222232126 -2.10145753086733 -3.8816925545409164
O 4.3862915939778615 11.04009968242341 -2.35314042747094
H 3.9667201353978236 11.82191858711742 -2.7426097437309984
H 5.049016761429684 10.77849626366297 -3.009890720975866
C 20.46291116942762 -8.790485557146681 4.358512377143147
O 21.30291987875829 -9.372616433830139 3.7353532738955346
O 19.62290246009695 -8.20835468046322 4.981671480390756
O -18.897264347602743 12.1161815308093 -1.4728329072264499
H -18.47383329057918 11.936126520220808 -2.3256246109911443
H -18.251163444730253 11.806139345390404 -0.8206140705864522
O -1.2601471852663062 8.406702062311247 2.399275096838279
H -0.3773998264015761 8.7564755344476 2.5926218721075474
H -1.0948669456839342 7.491422364606558 2.127415828699036
O 8.765025717434984 0.8337707099080176 6.064882141694698
H 8.300584349886687 0.13818578711969076 6.5541910300253985
H 8.181363858721664 1.0217342034833856 5.314568537882096
O -10.266223890845705 7.702148321204935 3.0728330702843767
H -10.342949064705364 8.554788769668292 3.5267987851136
H -10.677042987277112 7.8589211998739055 2.209344866067825
O 5.317705170228907 -7.78551146741732 2.0415764488613393
H 4.448160870221541 -7.535910925401183 1.6943594610137527
H 5.860489144021721 -6.994682037285032 1.903967166724111
O 3.4803552789374943 -1.7854992450574436 -7.931683578844761
H 2.784822576356842 -2.4403287404389946 -7.769202969173334
H 3.3023389593517645 -1.0888782824900327 -7.282074951459931
O 18.80569401638868 -1.6087000548694776 -5.483609654725952
H 19.499542765244946 -1.5375295860507459 -4.81094626566816
H 18.409433614383047 -2.477723897895154 -5.320094522841418
O -13.349034093561176 -2.4917800526168374 -0.07365972418239686
H -14.153944928853132 -1.9691794345471378 -0.20772872926101638
H -13.16205487680398 -2.3951293564428187 0.8722046211282519
O 12.66561659044004 14.140231497068786 0.41404638619157463
H 13.51897255897707 14.274748859075023 0.8529723790207857
H 12.776921610108516 14.565622833611691 -0.4494438266602234
O 23.925127183205507 -3.901491995644136 6.521500412124751
H 24.685983292445925 -3.920320943218689 5.921741453321486
H 23.160493792711602 -3.85417035015404 5.928155331830069
O 1.507686616098288 -5.102188793309849 6.8467069019862326
H 0.8838985045857326 -5.791087566098366 6.572345407446501
H 2.3121765167289556 -5.301475211640286 6.344668190777343
O 8.409271518304573 3.3589789863423336 -16.351449604975492
H 8.296282699590261 3.169945466068549 -17.295095307534698
H 8.011132617212542 2.593682234441624 -15.910124054766294
O 13.199793895677173 3.9629778315558433 6.357389870710963
H 13.467698478878873 3.05920660484439 6.132908109830488
H 13.083583574246907 4.393201516791029 5.496945400593495
O -0.9601672900604026 -5.104846208958072 13.228902024530566
H -0.9057921645713503 -5.703118093714677 12.468585344102056
H -0.0348982209969666 -4.905539384823786 13.436545671165824
O -4.178014188060928 -9.507204247286191 2.286737777137873
H -4.164059788166615 -8.937223974600371 3.0702523720067822
H -4.17083145077938 -10.40531263776334 2.650484490579645
O 3.282389898939686 -7.319290160764164 -14.320143140946277
H 3.4490414109819625 -8.094349182010884 -14.877348797789514
H 2.352520311882786 -7.411117183328069 -14.063487158561925
O -10.57040386107991 11.314929310820162 0.6163616807152912
H -11.42761873926829 10.993214263344647 0.2991087252675704
H -10.589998890757418 12.263992373859475 0.4217922034420667
O 8.640626460927747 13.135209010699391 -0.8512833985231989
H 8.772445276598498 13.756467382655279 -1.5831503208594127
H 7.831097971266296 12.659603999057317 -1.0909194593057787
O -11.367805669582433 3.5378916108817084 12.791510023901534
H -12.225439430473536 3.715231820838602 12.376802730726904
H -10.743231863393044 4.067138004171524 12.273081860978436
O -13.244556456115404 6.878573922689243 -10.901204974107937
H -14.196760295851274 6.711640728185736 -10.834808339666669
H -12.880689234296952 6.4822239295099084 -10.09530840996781