194

C -5.0710522388059704 1.0783507462686561 0.47044029850746183
C -3.8153522388059704 0.1782507462686569 0.19534029850746193
C -4.11845223880597 -1.3219492537313435 0.5608402985074619
C -2.96945223880597 -2.3874492537313436 0.7034402985074619
C -2.52015223880597 0.7359507462686565 0.7384402985074618
C -2.20305223880597 0.7852507462686571 2.097440298507462
C -1.5755522388059702 1.205650746268656 -0.18965970149253808
C -0.9533522388059701 1.2695507462686564 2.508640298507462
H -2.91125223880597 0.4298507462686567 2.840840298507462
C -0.32655223880597006 1.6562507462686575 0.21554029850746192
H -1.7850522388059702 1.178550746268657 -1.2573597014925382
C 0.004447761194029898 1.6956507462686563 1.569740298507462
H -0.7158522388059702 1.2676507462686573 3.5705402985074617
H 0.3943477611940298 1.9193507462686572 -0.5551597014925382
C -1.76045223880597 -2.1592492537313435 -0.1734597014925381
C -0.5287522388059701 -1.936549253731343 0.464840298507462
C -1.8068522388059702 -2.121249253731343 -1.5681597014925381
C 0.6114477611940299 -1.614449253731343 -0.2582597014925381
H -0.4544522388059702 -1.954049253731343 1.5506402985074619
C -0.6479522388059701 -1.8270492537313432 -2.2998597014925384
H -2.74345223880597 -2.290549253731343 -2.092259701492538
C 0.5698477611940298 -1.5506492537313434 -1.6506597014925382
H 1.5072477611940298 -1.351949253731343 0.2991402985074618
H -0.7173522388059701 -1.7640492537313435 -3.3840597014925375
C 1.7791477611940298 -1.082849253731343 -2.4255597014925376
H 1.4739477611940297 -0.9102492537313429 -3.464259701492538
H 2.1252477611940295 -0.1337492537313434 -2.0010597014925384
C 1.3965477611940298 2.0964507462686566 1.997440298507462
H 1.51704776119403 1.8448507462686567 3.057640298507462
H 2.1256477611940294 1.5207507462686571 1.4165402985074618
C 3.94864776119403 -1.4275492537313434 -3.522959701492538
H 4.81734776119403 -2.087049253731343 -3.615159701492538
H 3.4305477611940303 -1.3641492537313429 -4.484459701492538
H 4.26984776119403 -0.441449253731343 -3.176459701492538
C 2.60904776119403 -3.4296492537313434 -2.8992597014925376
H 1.9825477611940296 -3.869549253731343 -2.119359701492538
H 2.06294776119403 -3.373349253731343 -3.845759701492538
H 3.5215477611940305 -4.019849253731343 -3.0234597014925377
C 3.7281477611940304 -2.060049253731343 -1.156659701492538
H 3.9048477611940298 -1.032549253731343 -0.8295597014925382
H 3.12924776119403 -2.623249253731343 -0.4404597014925382
H 4.68244776119403 -2.5769492537313434 -1.3005597014925383
C 3.1110477611940297 3.755250746268656 2.588740298507462
H 3.40124776119403 4.809350746268656 2.534540298507462
H 2.9823477611940303 3.461750746268656 3.634840298507462
H 3.86514776119403 3.1392507462686563 2.091540298507462
C 1.99744776119403 3.9574507462686572 0.40494029850746194
H 2.67914776119403 3.230350746268657 -0.04295970149253803
H 1.03214776119403 3.981150746268657 -0.10175970149253821
H 2.4399477611940297 4.958250746268657 0.368240298507462
C 0.7418477611940297 4.4992507462686575 2.475440298507462
H -0.18475223880597014 4.424250746268656 1.901240298507462
H 0.57844776119403 4.189650746268656 3.511940298507462
H 1.1210477611940297 5.524350746268658 2.4432402985074617
N 3.00114776119403 -2.025349253731343 -2.490159701492538
N 1.7831477611940298 3.586450746268657 1.862540298507462
C -3.55075223880597 -3.8435492537313434 0.6444402985074619
H -2.62515223880597 -2.2736492537313433 1.7424402985074618
H -4.67195223880597 -1.3478492537313436 1.5102402985074619
H -4.83415223880597 -1.6757492537313432 -0.1945597014925382
H -3.7169522388059697 0.17335074626865676 -0.900559701492538
H -3.9132522388059705 -4.043149253731343 -0.34225970149253815
H -4.35435223880597 -3.9354492537313432 1.3449402985074619
H -2.78115223880597 -4.545049253731343 0.8904402985074619
H -5.24235223880597 1.138950746268657 1.5249402985074618
H -5.92805223880597 0.6501507462686567 -0.006059701492538094
H -4.89895223880597 2.059650746268657 0.08004029850746197
C 0.5744134828372416 1.3697398664509508 -2.911523488943713
O 0.1972944326973285 0.5733782963003322 -2.0657309788037788
O 1.4941954830730981 1.1743608828764294 -3.714305893409278
O 0.09462166257344462 2.4942752691691803 -3.0955569686187494
O -7.939491700197367 2.8285205097818924 -0.3923282021701815
H -8.7095323775762 2.4753050151222364 -0.8626935138315348
H -7.226195584416576 2.211415376583692 -0.6144809651340215
O -7.971721889258595 -0.8221711607914655 -5.619962294000673
H -8.849998370753129 -1.1324174288746145 -5.352857385595637
H -7.6753387196440315 -1.4837432215322235 -6.262956360471314
O -1.9905976623590722 6.4607497642215685 -5.849180989451941
H -2.4652508512568043 7.305206305063682 -5.872947726674106
H -2.6857374988483436 5.797851850940985 -5.976887326780652
O -3.75092004258517 1.9756732613615542 10.338847396193879
H -2.80116402055997 2.160650054792238 10.390947697718644
H -3.860350705823566 1.555407424999931 9.472612150414497
O -6.080178807345321 -5.695859269100066 1.755108070925202
H -6.436762454735829 -6.4613080768949605 2.2304012246304263
H -5.26208143301393 -5.485777653547628 2.2300231635669916
O 7.2232428144162615 -1.777071302983281 3.0577321080731705
H 7.138127499195066 -1.119098325808758 2.3514783991817465
H 7.612562140227074 -1.2813986567468996 3.793735528325574
O -10.874271165762707 4.1201602519294855 5.158338646811905
H -10.344646587181952 4.548211620470492 4.468964156020919
H -11.759902404679009 4.495058376983027 5.039718881229126
O -7.972315591970345 1.7373055233830152 -7.136926866919718
H -8.412719760873939 2.4759696420493658 -6.690399326103702
H -7.191745929649068 2.141916813010537 -7.544312005172946
O -2.6914951531792197 -8.74491287682585 4.910447783428987
H -2.7094341963031927 -9.150979239647711 4.030813963810607
H -2.756735706190995 -9.497679887259395 5.517116921053164
O 2.7299082324297332 -6.6524815042860475 -3.5829674425382168
H 2.808154915985183 -6.710349836288371 -2.618863677602178
H 2.4913448053045975 -7.5520448284943935 -3.852847529387061
O -2.2063702958980786 7.52078048543426 4.685223134914098
H -2.8003223488529674 7.9041083980267 5.347981029712942
H -2.4648933029529676 6.587526026083454 4.651106962427533
O 5.494389708839993 -5.716575922274625 -3.01640286913198
H 5.473626341354659 -5.739588878743661 -3.9849102998237758
H 5.460279360682421 -6.650225324943069 -2.759309070401968
O 4.157299357613503 -5.447358724229397 7.396073944829966
H 3.378962610508772 -5.802853247507227 6.941340056796649
H 4.336834167585784 -6.095173501719015 8.093974518245904
O -4.982361755799273 -4.567000236400895 -3.049139494738487
H -5.0751532297658795 -5.145314861214071 -3.8210911084982486
H -4.140492303773858 -4.838223066181681 -2.6533416338901383
O 0.2274533396327887 -4.849457094875116 -7.41850135448976
H 0.2142433460773978 -4.922806448906486 -6.452368483072247
H -0.32361814521044296 -5.5885374836797475 -7.716900988834491
O 8.997734149793493 -3.2042153039914787 -1.8431140149082572
H 9.088224048823964 -3.951297283412213 -2.4535625803896193
H 8.246562654887265 -3.4497811478150897 -1.2823995190304172
O 2.0013727530839835 -0.18591254852012712 4.314675937328345
H 1.7977248012656974 -0.5277618732316457 3.4311410439514636
H 1.1312801907541525 -0.025600339750086964 4.709898498675212
O 3.718881522735277 8.891703587252096 4.694632291559244
H 3.8020607153170074 9.17857682968953 5.6164524050276405
H 3.13868089651011 8.117053047982226 4.74202131599343
O 1.6100402882321343 8.380857090301511 -2.849180499522043
H 1.1241062941819657 8.109124644596141 -3.642273803161299
H 1.5788561235079266 9.348989606504457 -2.875806112022201
O -1.0737926797400776 8.58056657833474 3.140014536964108
H -1.2141885856497656 8.407184006188293 2.1970432594695697
H -0.15943330830245406 8.300219360489033 3.295945039465591
C -12.457811873472012 -5.090476373822862 12.3243650389272
O -12.976525599852053 -4.829638831633114 11.277599495001846
O -11.93909814709197 -5.351313916012609 13.371130582852553
O 2.7937984885439597 -15.431721684343726 -11.186163209325901
H 3.0327429620908877 -15.532703313513615 -10.25252751697498
H 2.6279490399081915 -16.338539173142202 -11.484722996799754
O 9.81360484072384 10.475774726804985 2.9263735327762403
H 9.362753429805494 10.514217220200713 2.0695056684736644
H 9.903153933420441 11.405142232143202 3.1856396977855495
O -2.260774686491117 17.95307436367116 -7.2795460155648115
H -1.5971601308511856 18.421047991998893 -7.808302823211383
H -1.7397955574920552 17.340460026697198 -6.738947860202319
O 11.23948239305416 9.98670208227049 0.4996751006179285
H 10.937994147899795 10.385624954970645 -0.33034461997333553
H 12.167017666347515 9.764151360132683 0.3290543598723761
O -4.395387131522185 -8.14821404710818 11.22331641226733
H -3.555407385130321 -7.915597139733091 10.799889019489406
H -4.980387370595934 -7.407032831601864 11.005630697613759
O 2.6357239189289254 10.188676144147834 -6.46895478441738
H 2.4491193373372844 10.192871889911276 -5.518098074525454
H 3.2471704445991554 10.930470768443328 -6.590757189615781
O -12.613519313479976 7.552722619602124 13.473314973549103
H -12.655289549993578 8.407734485399322 13.927382494505615
H -11.816738977316959 7.135119688393691 13.833468874055633
O 14.539583113265648 1.6521248371366566 12.327936481758321
H 14.301297536260519 1.9905456358378775 13.204097827457709
H 14.012525546461434 2.1898798906008867 11.718025202924995
O -8.885545877692255 -13.43551761998777 5.451234009078621
H -7.9678616221899805 -13.517631966886203 5.751367642876433
H -8.818400174269982 -13.455570249725792 4.484770719112303
O -9.843207963984675 -4.5862566071645485 -13.185189119903917
H -9.997897008719923 -5.525819660419675 -13.364799602050145
H -10.108869333691313 -4.144295487013872 -14.00558923522616
O -4.549984876134632 -10.02189779492219 -8.924290841950654
H -3.6237176430128235 -10.281103423539097 -9.04180174288407
H -4.568477764470378 -9.091117139185114 -9.193116674575904
O -6.9970623140433785 7.275787176883364 -3.0126441453875588
H -6.424863936237782 6.6392873392554375 -2.5583047017594875
H -7.177461536521628 6.858949944131708 -3.868602547543401
O 6.442930453213524 -13.491826443550988 -8.312496889751593
H 6.743680130856186 -13.678095636600089 -9.214617045838725
H 6.802771469133211 -14.224199763769246 -7.789901723878074
O 10.164404932812094 8.324674346812522 -7.419068732978402
H 10.187619145138816 8.163446837928916 -8.374282922375336
H 10.050913941720282 9.284254664233305 -7.346354541381245
O 2.4436297528311828 -11.259318597975154 4.8363095252144594
H 2.1124096005956763 -12.144027677980237 4.620554081691822
H 1.762150846934134 -10.66350351382654 4.49054539951843
O 12.627945454811416 2.5572790215575543 -1.2823685427834044
H 12.509253304893386 2.8950647627969737 -2.1828019514612325
H 12.177534163681482 3.2104554348796883 -0.7260842753424697
O -2.166893605888287 11.07050132289492 3.230735320406181
H -2.210735440865906 11.020583767624546 2.264012253503551
H -2.44726027959787 10.19036425139777 3.523506917302886
O 8.767579730204432 1.3904799377489083 -11.20769212195523
H 9.012225070156022 1.6660976253010638 -10.31150525257565
H 8.105830604692658 0.6967981882594789 -11.066781974663815
O 5.078027755672953 -12.604104296982726 -5.280327685542621
H 5.067469548913264 -12.661388704642693 -4.313076747156379
H 5.563405626713168 -13.396030710507521 -5.556412495277274
O -12.989302640518217 -6.586222071282822 0.9025411666057161
H -12.20311273855248 -6.3618515120060355 1.4226667736247594
H -13.121159927478043 -5.8137538880041735 0.332568793592972