194

C -5.0710522388059704 1.0783507462686561 0.47044029850746183
C -3.8153522388059704 0.1782507462686569 0.19534029850746193
C -4.11845223880597 -1.3219492537313435 0.5608402985074619
C -2.96945223880597 -2.3874492537313436 0.7034402985074619
C -2.52015223880597 0.7359507462686565 0.7384402985074618
C -2.20305223880597 0.7852507462686571 2.097440298507462
C -1.5755522388059702 1.205650746268656 -0.18965970149253808
C -0.9533522388059701 1.2695507462686564 2.508640298507462
H -2.91125223880597 0.4298507462686567 2.840840298507462
C -0.32655223880597006 1.6562507462686575 0.21554029850746192
H -1.7850522388059702 1.178550746268657 -1.2573597014925382
C 0.004447761194029898 1.6956507462686563 1.569740298507462
H -0.7158522388059702 1.2676507462686573 3.5705402985074617
H 0.3943477611940298 1.9193507462686572 -0.5551597014925382
C -1.76045223880597 -2.1592492537313435 -0.1734597014925381
C -0.5287522388059701 -1.936549253731343 0.464840298507462
C -1.8068522388059702 -2.121249253731343 -1.5681597014925381
C 0.6114477611940299 -1.614449253731343 -0.2582597014925381
H -0.4544522388059702 -1.954049253731343 1.5506402985074619
C -0.6479522388059701 -1.8270492537313432 -2.2998597014925384
H -2.74345223880597 -2.290549253731343 -2.092259701492538
C 0.5698477611940298 -1.5506492537313434 -1.6506597014925382
H 1.5072477611940298 -1.351949253731343 0.2991402985074618
H -0.7173522388059701 -1.7640492537313435 -3.3840597014925375
C 1.7791477611940298 -1.082849253731343 -2.4255597014925376
H 1.4739477611940297 -0.9102492537313429 -3.464259701492538
H 2.1252477611940295 -0.1337492537313434 -2.0010597014925384
C 1.3965477611940298 2.0964507462686566 1.997440298507462
H 1.51704776119403 1.8448507462686567 3.057640298507462
H 2.1256477611940294 1.5207507462686571 1.4165402985074618
C 3.94864776119403 -1.4275492537313434 -3.522959701492538
H 4.81734776119403 -2.087049253731343 -3.615159701492538
H 3.4305477611940303 -1.3641492537313429 -4.484459701492538
H 4.26984776119403 -0.441449253731343 -3.176459701492538
C 2.60904776119403 -3.4296492537313434 -2.8992597014925376
H 1.9825477611940296 -3.869549253731343 -2.119359701492538
H 2.06294776119403 -3.373349253731343 -3.845759701492538
H 3.5215477611940305 -4.019849253731343 -3.0234597014925377
C 3.7281477611940304 -2.060049253731343 -1.156659701492538
H 3.9048477611940298 -1.032549253731343 -0.8295597014925382
H 3.12924776119403 -2.623249253731343 -0.4404597014925382
H 4.68244776119403 -2.5769492537313434 -1.3005597014925383
C 3.1110477611940297 3.755250746268656 2.588740298507462
H 3.40124776119403 4.809350746268656 2.534540298507462
H 2.9823477611940303 3.461750746268656 3.634840298507462
H 3.86514776119403 3.1392507462686563 2.091540298507462
C 1.99744776119403 3.9574507462686572 0.40494029850746194
H 2.67914776119403 3.230350746268657 -0.04295970149253803
H 1.03214776119403 3.981150746268657 -0.10175970149253821
H 2.4399477611940297 4.958250746268657 0.368240298507462
C 0.7418477611940297 4.4992507462686575 2.475440298507462
H -0.18475223880597014 4.424250746268656 1.901240298507462
H 0.57844776119403 4.189650746268656 3.511940298507462
H 1.1210477611940297 5.524350746268658 2.4432402985074617
N 3.00114776119403 -2.025349253731343 -2.490159701492538
N 1.7831477611940298 3.586450746268657 1.862540298507462
C -3.55075223880597 -3.8435492537313434 0.6444402985074619
H -2.62515223880597 -2.2736492537313433 1.7424402985074618
H -4.67195223880597 -1.3478492537313436 1.5102402985074619
H -4.83415223880597 -1.6757492537313432 -0.1945597014925382
H -3.7169522388059697 0.17335074626865676 -0.900559701492538
H -3.9132522388059705 -4.043149253731343 -0.34225970149253815
H -4.35435223880597 -3.9354492537313432 1.3449402985074619
H -2.78115223880597 -4.545049253731343 0.8904402985074619
H -5.24235223880597 1.138950746268657 1.5249402985074618
H -5.92805223880597 0.6501507462686567 -0.006059701492538094
H -4.89895223880597 2.059650746268657 0.08004029850746197
C 2.45648119615918 -0.9037868287674224 2.4978954499226225
O 3.181344964200553 0.07521734209776199 2.586770923532809
O 2.829775945899987 -2.0409579934278743 2.187856361772854
O 1.2374474841623413 -0.9088513614949674 2.704243563370409
O 1.0068671004288188 0.8917347055165872 5.315045876913553
H 0.6193399665934849 0.004654225518337274 5.358385229094295
H 1.4273513342939321 1.0060020460417654 6.180550312638853
O 8.273754871681833 4.444530468868989 -0.7765569637363964
H 7.994281011664041 4.008093281457484 0.042213028331639896
H 9.093111600459043 3.9869156125100043 -1.0178143751190343
O -6.61813099277857 -2.8263851789915897 8.55944393437515
H -6.4451555089363195 -2.606075300555508 9.487080930377905
H -5.7453020680491536 -2.7798881604073764 8.141150210159179
O 2.014642494695687 -4.707141052501639 3.161792247085696
H 1.664910589073997 -4.947806902965785 2.2907383454753587
H 2.6356142029064236 -3.987362149258943 2.9739774118128084
O -9.292502507148209 0.7265698903836013 2.264349391254944
H -9.527227525147149 0.7209025732241168 3.2044767253653896
H -8.449329244644717 1.2032719755446744 2.2364941277972292
O -0.6106071815115088 -7.823724386195307 -4.32546033180869
H -1.4694137098852498 -8.06351772689242 -3.946095260301094
H -0.8381342090950084 -7.360613511607178 -5.1456564753361
O 8.263744986074459 0.8606440223449292 -4.844503636965879
H 7.4236509956962395 0.4256185893858855 -5.0541755638163695
H 7.998852397339638 1.6749325263498376 -4.390931048531776
O -7.868161456987723 -2.1230424092438533 4.596796460431546
H -7.716019437348538 -2.5014607776052533 3.717808575846777
H -7.396207609078406 -1.277097706758463 4.572320552266729
O 5.373055918332493 -3.465863638557956 -9.754674989667182
H 5.526592473695086 -3.5431809928035913 -8.801041983841646
H 5.250042944823473 -2.515092522555744 -9.895614826563559
O 6.280813840734668 -3.8854754802833136 4.178442605420999
H 5.915726226984808 -3.075521889358705 4.5652934445499405
H 6.4711265460265235 -4.446096147786077 4.945545913765612
O 10.465535208034082 4.400945423109721 -4.0321901007830805
H 10.201224451902165 3.6421342935532763 -3.4906064500381104
H 9.8798079796193 5.114333709607971 -3.7372956944600237
O 3.3268107195121575 -2.173153493157642 8.399872964219568
H 2.564750345448573 -1.7189432614299696 8.010098146438887
H 3.555239564848235 -1.629441769328206 9.16874211322273
O -1.9680776303791854 -7.889154488442748 -0.36082781895126514
H -1.7239902123052167 -7.408279251882205 -1.1659040241025698
H -1.2341078704356125 -8.507220817004189 -0.22575617393665648
O 0.3166463004533042 -3.2691401431872316 5.311827305920451
H 0.9531219683926306 -2.562936759551161 5.124363010754267
H -0.3494164139133933 -2.8415994074329243 5.87087231672113
O -0.19863272411174737 -7.289553271581775 -9.007309788443749
H -0.366799071062446 -7.379109519071927 -8.05722183715253
H -1.0796577448725 -7.3437749602283 -9.407080804869194
O -2.690437079886422 7.55310557844502 -0.32950860891036526
H -3.0159815638314504 7.402053249327238 -1.229603792622099
H -3.4317183275939414 7.988602286158164 0.1174887889212044
O 5.466386713368086 -4.134920143967186 1.3460769614841284
H 6.254224645076757 -3.5715175779159027 1.3753395455777553
H 5.755630151536833 -4.9633022833194875 1.7572742486571165
O 3.5593384169028877 9.513837377404696 3.208558327385426
H 4.255471130909561 9.771606322337107 3.8313919909089518
H 3.0888277882853608 10.341425850141022 3.027784954202607
O -6.115274020853146 -0.4698457788349657 -2.083596268626433
H -5.587848218313911 -1.1091184815923136 -2.585711585287019
H -7.029352381723235 -0.6741247107491302 -2.3319766472094816
O 5.700698269983128 -0.4670746167445961 3.068772613545798
H 5.212828856585344 -0.8004053661287784 2.3007612829745083
H 6.477784796069118 -0.03539260253355292 2.683092546803551
C -1.6684395786823667 -16.111728623045785 3.2601395905103994
O -1.3834600519313427 -16.42741866331042 2.1412362322571155
O -1.9534191054333916 -15.796038582781154 4.379042948763684
O 8.53901807884985 -7.549981349986803 10.845463722093124
H 9.329684913857022 -8.03443730781082 10.564188522602393
H 7.804492315510759 -8.103269396225159 10.540003110588351
O -7.472298907823343 -9.315686136923786 -4.815013220519669
H -8.256265437883878 -9.366997422269552 -5.3822265742420665
H -7.286117476169876 -8.366429243569005 -4.75835839525388
O -13.677488951358926 -3.1538373574014917 -12.810359768243217
H -13.56843773074522 -2.6030138644475413 -13.60008672599043
H -13.410768315660107 -2.5735542697845686 -12.08159808907904
O -4.4000689611799855 12.927259740091857 1.1218051965642353
H -3.5605120093919393 12.898940100670448 1.6048263965414264
H -4.8284299391194505 13.7344616868491 1.4441308611180523
O 4.55649953824905 16.17747668688584 11.588298040977044
H 4.638737916964326 16.0353190210214 12.54328254556456
H 5.298374194968196 15.679864317314472 11.212843825835678
O 0.6678895793160073 -7.512933604466702 9.82812852554818
H 1.0742766008626703 -6.703762808242091 10.173178620687514
H 1.2633293734739985 -7.7881374734784 9.114913111865832
O 9.94471670072165 -13.933458455060753 12.612562654226743
H 9.043799153434692 -13.582481097718166 12.676826365007155
H 10.02020348520665 -14.52564999896495 13.375827264304059
O 3.376922203441998 -8.284175573710144 -7.951507801196519
H 3.4445115915236872 -8.694203640758754 -7.076135871242672
H 2.424731569333165 -8.155233677983631 -8.076683390437674
O 11.787855833676266 10.723370235716084 -2.5920938348885683
H 11.949035293873632 10.000927944514505 -1.9667413947446928
H 12.22030657460491 11.48793655949773 -2.1829647140608204
O 3.3560516054067118 17.16585020469626 0.19826544938765855
H 4.155671704778555 16.628896316705042 0.09217315112016267
H 3.4001091737306304 17.79859065221048 -0.5343056400315751
O -1.405796309384626 3.2352705798363006 -5.6189523781938835
H -1.1205876949603932 2.5290867452844354 -5.019846548664715
H -0.61227309158793 3.779390837485637 -5.733913207754201
O 0.5161444759439324 -2.693999916412574 -16.737840486364004
H 1.1026607334015255 -3.099007073041353 -17.39429706506317
H -0.052843610113143674 -3.4238085947308345 -16.450449123799892
O 2.393837491487778 1.4623466896528536 21.1054483259715
H 1.798884274365209 1.4586697427125013 21.870291124458035
H 1.9553996898293597 0.8821279449437768 20.465073087017686
O -6.744093465147104 -14.889251762363715 3.0041943080111864
H -6.731518751853816 -14.776638643357401 3.966549501748541
H -7.009856661415881 -14.019323038561822 2.6701944826917527
O -11.686724671546273 8.687559504749728 -4.088962515465519
H -11.021730946389953 8.59526880693136 -3.390225705572896
H -12.099904355546059 9.544975379646246 -3.9070765333083646
O -13.006265719497925 -14.936472154305456 12.296506404969204
H -12.797103934097585 -14.882445696180605 11.351890162122075
H -12.146528894272144 -15.083758709430336 12.71855048599646
O 1.7455348402064557 -5.837378705685245 -14.277005619223836
H 0.8333288144827553 -5.515042635041334 -14.222719515152749
H 2.2705329495956303 -5.033367698881565 -14.40702573449961
O 3.2428597454092665 1.5657893934178386 -5.586344875113674
H 2.397063124039178 1.9368656844930556 -5.879428171090783
H 3.1093613451189435 1.3964472187627814 -4.641642091534086
O 9.391831686273127 12.389606291967826 -4.957571817270202
H 8.487225239028275 12.459917327357978 -4.617408781645499
H 9.651376725790495 13.308249302963503 -5.123984963117286
O 7.953675397396798 -11.162952428396663 -8.343476827488786
H 8.166897606955184 -11.993958983340857 -7.89299735859945
H 8.137191271699054 -11.348784628244667 -9.276616828602624