194

C -5.0710522388059704 1.0783507462686561 0.47044029850746183
C -3.8153522388059704 0.1782507462686569 0.19534029850746193
C -4.11845223880597 -1.3219492537313435 0.5608402985074619
C -2.96945223880597 -2.3874492537313436 0.7034402985074619
C -2.52015223880597 0.7359507462686565 0.7384402985074618
C -2.20305223880597 0.7852507462686571 2.097440298507462
C -1.5755522388059702 1.205650746268656 -0.18965970149253808
C -0.9533522388059701 1.2695507462686564 2.508640298507462
H -2.91125223880597 0.4298507462686567 2.840840298507462
C -0.32655223880597006 1.6562507462686575 0.21554029850746192
H -1.7850522388059702 1.178550746268657 -1.2573597014925382
C 0.004447761194029898 1.6956507462686563 1.569740298507462
H -0.7158522388059702 1.2676507462686573 3.5705402985074617
H 0.3943477611940298 1.9193507462686572 -0.5551597014925382
C -1.76045223880597 -2.1592492537313435 -0.1734597014925381
C -0.5287522388059701 -1.936549253731343 0.464840298507462
C -1.8068522388059702 -2.121249253731343 -1.5681597014925381
C 0.6114477611940299 -1.614449253731343 -0.2582597014925381
H -0.4544522388059702 -1.954049253731343 1.5506402985074619
C -0.6479522388059701 -1.8270492537313432 -2.2998597014925384
H -2.74345223880597 -2.290549253731343 -2.092259701492538
C 0.5698477611940298 -1.5506492537313434 -1.6506597014925382
H 1.5072477611940298 -1.351949253731343 0.2991402985074618
H -0.7173522388059701 -1.7640492537313435 -3.3840597014925375
C 1.7791477611940298 -1.082849253731343 -2.4255597014925376
H 1.4739477611940297 -0.9102492537313429 -3.464259701492538
H 2.1252477611940295 -0.1337492537313434 -2.0010597014925384
C 1.3965477611940298 2.0964507462686566 1.997440298507462
H 1.51704776119403 1.8448507462686567 3.057640298507462
H 2.1256477611940294 1.5207507462686571 1.4165402985074618
C 3.94864776119403 -1.4275492537313434 -3.522959701492538
H 4.81734776119403 -2.087049253731343 -3.615159701492538
H 3.4305477611940303 -1.3641492537313429 -4.484459701492538
H 4.26984776119403 -0.441449253731343 -3.176459701492538
C 2.60904776119403 -3.4296492537313434 -2.8992597014925376
H 1.9825477611940296 -3.869549253731343 -2.119359701492538
H 2.06294776119403 -3.373349253731343 -3.845759701492538
H 3.5215477611940305 -4.019849253731343 -3.0234597014925377
C 3.7281477611940304 -2.060049253731343 -1.156659701492538
H 3.9048477611940298 -1.032549253731343 -0.8295597014925382
H 3.12924776119403 -2.623249253731343 -0.4404597014925382
H 4.68244776119403 -2.5769492537313434 -1.3005597014925383
C 3.1110477611940297 3.755250746268656 2.588740298507462
H 3.40124776119403 4.809350746268656 2.534540298507462
H 2.9823477611940303 3.461750746268656 3.634840298507462
H 3.86514776119403 3.1392507462686563 2.091540298507462
C 1.99744776119403 3.9574507462686572 0.40494029850746194
H 2.67914776119403 3.230350746268657 -0.04295970149253803
H 1.03214776119403 3.981150746268657 -0.10175970149253821
H 2.4399477611940297 4.958250746268657 0.368240298507462
C 0.7418477611940297 4.4992507462686575 2.475440298507462
H -0.18475223880597014 4.424250746268656 1.901240298507462
H 0.57844776119403 4.189650746268656 3.511940298507462
H 1.1210477611940297 5.524350746268658 2.4432402985074617
N 3.00114776119403 -2.025349253731343 -2.490159701492538
N 1.7831477611940298 3.586450746268657 1.862540298507462
C -3.55075223880597 -3.8435492537313434 0.6444402985074619
H -2.62515223880597 -2.2736492537313433 1.7424402985074618
H -4.67195223880597 -1.3478492537313436 1.5102402985074619
H -4.83415223880597 -1.6757492537313432 -0.1945597014925382
H -3.7169522388059697 0.17335074626865676 -0.900559701492538
H -3.9132522388059705 -4.043149253731343 -0.34225970149253815
H -4.35435223880597 -3.9354492537313432 1.3449402985074619
H -2.78115223880597 -4.545049253731343 0.8904402985074619
H -5.24235223880597 1.138950746268657 1.5249402985074618
H -5.92805223880597 0.6501507462686567 -0.006059701492538094
H -4.89895223880597 2.059650746268657 0.08004029850746197
C 2.071881096375659 -0.502253246498316 3.543059776033189
O 3.013910219235501 0.26866247156986844 3.4428321056056497
O 1.7163755596301402 -1.3093622967819085 2.676559771189797
O 1.3282805461333245 -0.5945976339173173 4.526512428778356
O -2.968753640559483 -2.921585499579596 10.09203802378995
H -3.785791425263878 -2.560102543250774 10.467200238770499
H -2.9523782726208334 -2.5735767117251998 9.187834686480809
O 2.015249324393823 4.272951979467527 -7.320390906570897
H 1.9968676756127133 4.3377819994473645 -6.353733500662526
H 1.6958468865293237 5.137663930768137 -7.619083504845622
O -3.7622272577353186 -5.714050289315151 3.9855924071136437
H -3.375147702411758 -5.4542899502430515 4.835098935043632
H -3.0581356704152953 -5.537292193410593 3.343740744735674
O 2.1870562680097887 -4.169425155390387 4.5173912350826315
H 1.7243471118618698 -3.3226466498322056 4.428882725652549
H 1.6645165435414015 -4.654187006839721 5.1738363036389545
O -2.8514437478994683 -5.078399211738552 -5.134284255416983
H -2.841819861145042 -5.425646056536542 -4.229688010409532
H -2.466461930974393 -5.793063160311582 -5.663440551370337
O 6.031641339527662 8.389048097163103 -1.1479864654092466
H 5.980054632637776 8.359799482979845 -0.18079946842230557
H 5.420584832357584 7.694374045598725 -1.4360834133768257
O 3.8110888677438517 -3.195283564201179 5.366305625830103
H 4.530099666986702 -3.8448760496842644 5.370825612120457
H 3.980726034731414 -2.652910418503638 6.151172841798886
O 3.657797399342823 -9.521362286114794 4.420240930675939
H 4.581096130280204 -9.50826121672976 4.714035369579046
H 3.1759820167031263 -9.09244600920837 5.143322329106638
O -7.5440526156692505 -1.8832375068620855 6.071868859042184
H -7.593280131745925 -1.0008779651590027 5.674394774696493
H -8.449063973022282 -2.0554305361679606 6.3723117787798405
O -0.24134037477208126 -9.37791592176059 -6.964798580806571
H 0.14057805999799133 -9.220713586437292 -6.088218241161835
H -0.5896117571447381 -10.280500231626151 -6.909930082515242
O -5.625304475537534 -0.014186753940209407 -4.8599649974893
H -4.803964607775666 -0.10759299130384692 -4.354353038229544
H -6.111267379948322 0.6805494412576558 -4.390770348203289
O 5.972848386268658 2.952397111385951 3.3510284393459795
H 5.429141744814642 2.411253432812253 3.9430706372326862
H 6.348105058601654 3.6306508538500877 3.932506070044666
O -3.839003826939637 6.309871936461247 2.723997781236137
H -3.006075703828593 6.595028606460056 3.1288233883633345
H -3.7402011326205233 6.550917259154228 1.7906719408657332
O 6.736194755952165 -3.4566928315736294 6.061142331387802
H 6.117392217077613 -2.7341072246987297 5.876966286475211
H 6.703045995205905 -3.5533511703552136 7.024739897545465
O 5.255907488926322 2.49702063938152 8.183462747781569
H 5.215128278666795 3.0693924098142995 7.40263308049026
H 4.3911512022380315 2.6139022514400407 8.604766910703892
O -5.556105902792146 3.0212753965407946 7.68939791694989
H -6.251961559809272 2.5046208717651774 7.256015449000221
H -5.847755268619759 3.9395714454099497 7.586271982560662
O -1.0450689026880076 9.357293388108232 -3.236319347779443
H -0.303106416339054 9.746253824697927 -3.723319147080053
H -1.3254374109381375 8.614110080193885 -3.7913274690885665
O -1.1367522461648334 2.0898020209686603 9.426025319683033
H -1.7930315461466733 2.109062311358821 10.138692057036078
H -0.8464119961059702 1.1656843119828506 9.400122743854082
O 6.407706628137177 3.4177138710485964 -5.0853042334436624
H 6.019668901485991 3.8163582300182948 -4.291908522176567
H 6.981292024621894 2.7177260250881714 -4.738924741055396
O 6.377115026588351 6.610151490406785 2.880796075424027
H 6.823894410579882 6.200280342730976 3.636680445710294
H 5.480388863851799 6.24430223911191 2.9123944723890505
C -12.058313204428279 0.9097913781703908 -2.401949689755678
O -12.367998383501062 0.5014156695048184 -1.3202183794320144
O -11.748628025355494 1.3181670868359627 -3.483681000079341
O -8.741109649497085 4.869594379849625 15.890341851405118
H -9.372037214720194 5.202082444618392 15.234331599101115
H -8.924656474757466 3.918997153874381 15.930806912939847
O -2.9916003759462892 -6.389693412420609 13.024148472582937
H -2.846945701027079 -6.389265486237403 13.982293659286498
H -2.218592680020662 -5.924534799070239 12.670526484061702
O -4.537295215466811 -13.95819534350344 -9.11753693148239
H -4.36101139216075 -13.880339066481628 -8.167889749277913
H -4.314087577828056 -13.083410109951323 -9.46951859287811
O -7.800827611119189 -7.260364774418791 -10.702587385329949
H -7.792743120668411 -7.908935499809653 -11.422488775855152
H -7.914148640006404 -7.798017090449049 -9.90443309211388
O 15.272397947147065 3.361356461925066 -8.4880257910677
H 14.985602334177038 2.5149851049493686 -8.11336439811099
H 14.479738480028377 3.7029718724718936 -8.928425410463586
O -0.9998099220575634 15.928955241099302 1.3949061605671356
H -0.523602749684509 16.00141540918313 0.5541067731258009
H -0.872438266886272 16.794564018410725 1.8113912748273475
O -10.727719877301235 -2.5158265037325784 1.7365083896285753
H -10.071423147044028 -2.234051772970513 1.0816458392734145
H -10.866169441765 -3.454572547193738 1.540168051730807
O 14.596302477381059 -1.6528199095826102 10.141704581508872
H 14.907418865302215 -1.6748790203583184 9.224269381781568
H 13.768523957839584 -2.156095997954564 10.120307250863457
O 11.327546370337048 -5.520528378258595 4.267433007013696
H 11.367333265204337 -4.7760135882702945 4.886369261716471
H 11.083704034343338 -6.275093584860456 4.824329953012703
O 9.192536842850869 0.8220601973038173 10.914403094450439
H 9.045076606082088 1.1703137141183544 11.806559091739254
H 9.756782603840614 1.4879697821795266 10.49350751324797
O -15.009202239005553 -4.234493515880983 16.2317977325137
H -14.707775771157138 -3.9148183052113428 17.095462714473573
H -15.162286676440537 -3.4243147281329414 15.72274230213472
O 13.022559176469766 6.9877862417876475 14.973926920408605
H 13.610158722832722 7.08983852034799 14.210199572165337
H 12.356683037572077 6.351138484111984 14.67350963629656
O -12.77124795929187 4.084233612673925 -12.004336695934743
H -12.76967592233157 4.13241979598046 -12.972139866697344
H -11.96249325788051 3.5940826513086055 -11.793079004198615
O 5.0019732049199614 3.63384782481058 -7.022907199066015
H 5.27177288595707 2.7866034709698346 -6.637741658165412
H 4.570848553311899 4.097686676613341 -6.2894584969510525
O -8.714331510714638 11.476540886749797 -12.59293507273439
H -8.889544517906986 11.51843537381621 -13.545044631012248
H -7.750690733948331 11.392339456294192 -12.535764129393728
O -15.325831327200394 -0.17437078169634157 -2.2339383259178733
H -14.664400244129757 -0.1391472956039599 -2.941211671432539
H -15.951163878959978 0.529508462136866 -2.463012886073815
O -0.9759912760171314 8.937812580592215 12.221508586094862
H -1.5346224830865935 9.729543030604123 12.213671117622212
H -0.12072379857210169 9.25154048058882 11.891274894463411
O -6.599860031068451 -4.270891663875243 5.945988853761599
H -6.557676618967984 -5.210676948551808 5.713628066732135
H -5.673043832428502 -3.9880960573804227 5.9465573481073415
O 16.618889990744513 10.644860533055533 0.5331208655700639
H 16.378275616863515 10.176472774574167 -0.2803193520775862
H 17.536646608207562 10.378631942656655 0.6937666655680816
O -13.504913436765099 7.723480458093189 -2.6816663032982384
H -12.792052618645652 7.841071473062135 -2.0359348079469215
H -13.147453781031603 7.078219753668933 -3.310015857407099