194

C -5.0710522388059704 1.0783507462686561 0.47044029850746183
C -3.8153522388059704 0.1782507462686569 0.19534029850746193
C -4.11845223880597 -1.3219492537313435 0.5608402985074619
C -2.96945223880597 -2.3874492537313436 0.7034402985074619
C -2.52015223880597 0.7359507462686565 0.7384402985074618
C -2.20305223880597 0.7852507462686571 2.097440298507462
C -1.5755522388059702 1.205650746268656 -0.18965970149253808
C -0.9533522388059701 1.2695507462686564 2.508640298507462
H -2.91125223880597 0.4298507462686567 2.840840298507462
C -0.32655223880597006 1.6562507462686575 0.21554029850746192
H -1.7850522388059702 1.178550746268657 -1.2573597014925382
C 0.004447761194029898 1.6956507462686563 1.569740298507462
H -0.7158522388059702 1.2676507462686573 3.5705402985074617
H 0.3943477611940298 1.9193507462686572 -0.5551597014925382
C -1.76045223880597 -2.1592492537313435 -0.1734597014925381
C -0.5287522388059701 -1.936549253731343 0.464840298507462
C -1.8068522388059702 -2.121249253731343 -1.5681597014925381
C 0.6114477611940299 -1.614449253731343 -0.2582597014925381
H -0.4544522388059702 -1.954049253731343 1.5506402985074619
C -0.6479522388059701 -1.8270492537313432 -2.2998597014925384
H -2.74345223880597 -2.290549253731343 -2.092259701492538
C 0.5698477611940298 -1.5506492537313434 -1.6506597014925382
H 1.5072477611940298 -1.351949253731343 0.2991402985074618
H -0.7173522388059701 -1.7640492537313435 -3.3840597014925375
C 1.7791477611940298 -1.082849253731343 -2.4255597014925376
H 1.4739477611940297 -0.9102492537313429 -3.464259701492538
H 2.1252477611940295 -0.1337492537313434 -2.0010597014925384
C 1.3965477611940298 2.0964507462686566 1.997440298507462
H 1.51704776119403 1.8448507462686567 3.057640298507462
H 2.1256477611940294 1.5207507462686571 1.4165402985074618
C 3.94864776119403 -1.4275492537313434 -3.522959701492538
H 4.81734776119403 -2.087049253731343 -3.615159701492538
H 3.4305477611940303 -1.3641492537313429 -4.484459701492538
H 4.26984776119403 -0.441449253731343 -3.176459701492538
C 2.60904776119403 -3.4296492537313434 -2.8992597014925376
H 1.9825477611940296 -3.869549253731343 -2.119359701492538
H 2.06294776119403 -3.373349253731343 -3.845759701492538
H 3.5215477611940305 -4.019849253731343 -3.0234597014925377
C 3.7281477611940304 -2.060049253731343 -1.156659701492538
H 3.9048477611940298 -1.032549253731343 -0.8295597014925382
H 3.12924776119403 -2.623249253731343 -0.4404597014925382
H 4.68244776119403 -2.5769492537313434 -1.3005597014925383
C 3.1110477611940297 3.755250746268656 2.588740298507462
H 3.40124776119403 4.809350746268656 2.534540298507462
H 2.9823477611940303 3.461750746268656 3.634840298507462
H 3.86514776119403 3.1392507462686563 2.091540298507462
C 1.99744776119403 3.9574507462686572 0.40494029850746194
H 2.67914776119403 3.230350746268657 -0.04295970149253803
H 1.03214776119403 3.981150746268657 -0.10175970149253821
H 2.4399477611940297 4.958250746268657 0.368240298507462
C 0.7418477611940297 4.4992507462686575 2.475440298507462
H -0.18475223880597014 4.424250746268656 1.901240298507462
H 0.57844776119403 4.189650746268656 3.511940298507462
H 1.1210477611940297 5.524350746268658 2.4432402985074617
N 3.00114776119403 -2.025349253731343 -2.490159701492538
N 1.7831477611940298 3.586450746268657 1.862540298507462
C -3.55075223880597 -3.8435492537313434 0.6444402985074619
H -2.62515223880597 -2.2736492537313433 1.7424402985074618
H -4.67195223880597 -1.3478492537313436 1.5102402985074619
H -4.83415223880597 -1.6757492537313432 -0.1945597014925382
H -3.7169522388059697 0.17335074626865676 -0.900559701492538
H -3.9132522388059705 -4.043149253731343 -0.34225970149253815
H -4.35435223880597 -3.9354492537313432 1.3449402985074619
H -2.78115223880597 -4.545049253731343 0.8904402985074619
H -5.24235223880597 1.138950746268657 1.5249402985074618
H -5.92805223880597 0.6501507462686567 -0.006059701492538094
H -4.89895223880597 2.059650746268657 0.08004029850746197
C 2.625015770946401 -0.8965808155825388 3.7342378367068787
O 1.6021649312171804 -0.29404079053477516 3.447014619538302
O 2.705352393723859 -2.116424207218139 3.9190609711453726
O 3.7380877154245016 -0.379732979084787 3.8845293691474483
O 9.619969148002422 -2.8610546711779348 6.528954835448288
H 9.748087327953339 -3.4131139593778306 7.314946967201712
H 10.512550462958748 -2.553069414097996 6.311226514111258
O -9.50589276382159 -1.918928068221525 0.3049524252957099
H -9.530067904797576 -2.3247652611455427 1.1845427232744592
H -8.560038630349155 -1.8299495542364923 0.11415219850830538
O -6.009168809408141 -0.13275574676555957 -7.450730900279616
H -5.237603038066293 -0.7180490001276763 -7.41778511204426
H -5.9971312786600715 0.2198146227098725 -8.353233629761055
O -4.975518078526683 1.2740711774122753 7.066207419952082
H -4.337279875877564 0.556284494484947 6.9381385658484955
H -5.835898823089744 0.8489294731553167 6.932187085724032
O -3.6386776660561493 -4.240580417578714 5.475061708745381
H -3.6078271482897963 -4.284213027229343 6.442590415207688
H -3.382169763982059 -3.3281190394745646 5.273617240114882
O -0.3697395264486802 -4.934050633861352 3.888240627205533
H -1.1178063571449266 -4.385014167290333 4.167386345580873
H 0.3977186054744862 -4.350321242589038 3.9843132966274677
O -2.207755625217704 4.193569305064192 -4.4549720986317585
H -1.6568310432251063 4.4783287709323885 -3.710417528130212
H -2.7671474029998437 3.4971915183353275 -4.079338285723038
O 2.9577975117281703 9.441658103773463 -1.2127781939447857
H 3.463551194375165 8.647860819030397 -1.4431397361421308
H 3.2605764624562052 10.105373523721443 -1.850562399314677
O 4.0851607713808 -1.5601655483135883 -7.628071168419396
H 4.934026138117559 -1.1349959984844586 -7.822044877856948
H 3.7496167150586275 -1.073412608252443 -6.860318795639804
O 4.705894713087755 -4.882192091925407 2.28943809922541
H 5.026328378135538 -4.091192408090164 1.8305164028799532
H 3.823500914005825 -4.630686433549454 2.6010276231934615
O 6.695241135204794 0.6266979247425737 -3.2590909779511756
H 5.941913182636869 0.5135231945000394 -3.8579697914137565
H 6.92898071943118 -0.2782556700500396 -3.003382662995246
O 7.7363261852999 1.3081369276070682 5.645202070482947
H 8.225780489651811 0.47791760819368445 5.745888328354444
H 6.8415198908859445 1.024608923647645 5.404587210700868
O 4.2078053038193985 3.3806326476594655 -2.3660492196992435
H 4.871428070119187 4.059609634511464 -2.559859519410066
H 3.4919848070842328 3.8697678309301082 -1.9332562747005808
O 6.384332100840887 3.020981932665178 3.7994293350441803
H 6.410559073069359 3.548237279853175 2.9868523838023964
H 5.589339205395502 3.334424467472956 4.256268494776175
O 6.195479845014911 -1.4065751860040425 6.8971216619284625
H 6.105527220381049 -1.3623203789905665 5.933318054196223
H 5.282560470778452 -1.476162786881077 7.214450712360172
O 11.177643873399614 2.988462523884857 3.6782949853746496
H 10.551104266101316 3.3331456354587408 3.0243767718477272
H 10.74700474629661 2.1889221905170393 4.016299633014358
O -0.3720227388344046 8.272965565987374 -1.4846608958799838
H -0.46136786742316893 8.423163675449558 -0.5315474016876899
H -1.2733300422434097 8.38004764590337 -1.8239845132166628
O 8.44124882186468 3.4220509212309307 0.2577931402924154
H 8.45594681259496 3.5170386681121446 -0.7064312391499029
H 9.299191692858457 3.7726249993746 0.5406248749769625
O 6.629651510937176 1.3472813353979558 -9.140628643413672
H 6.328422851341656 2.0752618961620204 -9.704785496325986
H 5.939699831639082 1.274486005346418 -8.464145484379817
O -3.1258521631589433 2.4385012272247852 8.815499503840318
H -2.400901077594982 2.390425443177025 9.456671867115459
H -2.8414881595882875 1.8544831396377788 8.0964571329438
C 0.659222927950718 9.274458230777803 -11.813121926773714
O 0.7066862844088039 9.110679752396218 -10.628325700786839
O 0.6117595714926322 9.438236709159387 -12.997918152760592
O 8.633748831791703 -1.0663668874383379 13.262232627058749
H 8.73095730558492 -0.2382638317329251 12.768508818989751
H 8.509566041563058 -1.736404492057971 12.573327562984888
O -6.626767145382192 13.713520519207181 -11.657813559446353
H -7.126518315736775 14.542824553723422 -11.61946068518236
H -5.725655558360412 13.971701400308465 -11.412247917165406
O -12.725864183397691 -12.433436800002559 7.172383258678315
H -12.194811569918722 -12.516276126625982 6.366102833155201
H -12.83586492062261 -11.477072421947877 7.2829678801139215
O 0.003118428064206036 -9.008827050375341 -14.13733721751765
H -0.5273750578396381 -9.11263048836239 -13.333117804312735
H 0.16237419738815273 -8.054517731102287 -14.191126318510655
O 16.652097014042816 1.7352379531670032 -8.39800883726452
H 15.8830594841298 1.300764213396173 -8.796482429783321
H 17.402292610247276 1.4010412307022293 -8.912286060587933
O -7.190450389251472 -7.934218477041517 8.658642994618967
H -7.321395539173873 -8.035192241525651 7.703852429365151
H -6.265850915758976 -7.655888428251808 8.73994577352668
O 10.188248572101037 -9.003980600253056 12.298919838749754
H 9.896263885683798 -9.098510562796436 13.218037016251822
H 10.807460923198734 -9.738663975772363 12.173307951240579
O -4.627919991571229 -16.952404802745672 -11.157088603459178
H -4.773814649253339 -17.850680119655784 -10.824246958243535
H -4.754335741326831 -17.034076188808786 -12.114329841189907
O 10.711686529840486 -0.6649424404457858 8.455451972187666
H 10.640914555258354 -0.51062619632651 9.409467266255149
H 10.281607012803812 0.1084729160329192 8.060708714248511
O -14.436336533950458 10.2573155793193 2.648363532716992
H -14.61059271873238 10.505101580558197 3.5688005140227674
H -14.87756385886889 9.400324993213175 2.549128824218398
O -7.470872945619146 -9.954197848860684 -11.406289526666022
H -7.953083965547554 -9.241099985591699 -10.961394790171184
H -8.0046012956481 -10.74341808336657 -11.229576725426714
O 6.65912330917585 -5.115906701925734 7.641963547001082
H 6.837629416004289 -6.030254637478411 7.908554581125476
H 7.292308603079593 -4.59397391977481 8.15735126396786
O -10.902385386535208 13.157109118736534 1.1542287487472258
H -10.591465676474954 13.94488050302797 1.625092356268135
H -11.290602323166123 12.606250132397445 1.8505073794565003
O 0.8208841962888993 14.94145058211797 -2.635301713603371
H 0.9978698727471889 15.312381476620779 -1.7577746777053607
H 0.8071601050297437 15.715437348258336 -3.2181551080849395
O 12.431083655415152 4.858864581288025 -9.457640594571465
H 12.744841137280076 4.6179187083239555 -10.342213195195836
H 11.498486418229584 5.084227258967849 -9.593419830844258
O 6.2932511685558525 3.383347715212035 9.528085473172684
H 5.793803034394857 3.1177265579477718 10.314828327602704
H 5.745694980478146 4.073973386466554 9.125369261179603
O 12.943247378523642 5.297620710601754 -6.109337137114138
H 13.37570029334678 4.8904982724263215 -6.874976186337116
H 13.398392031523988 6.147016712777798 -6.0076920652584525
O 0.4538419311307136 -2.6168639939627556 -11.45596533784735
H 0.03214764703264006 -3.2817596619090104 -10.89111576636365
H 1.3000742298878194 -3.0204699556157864 -11.700822579027584
O -6.303658989115257 6.056850327015875 -4.63456998527212
H -5.895905804994667 5.4287502117955695 -5.249545548201055
H -6.238561885773047 5.617154765501749 -3.7735286827661194
O -9.963356482570862 3.7907737439921148 -4.032494700106163
H -10.146625331055947 4.672236018825546 -4.390829939959046
H -10.244737685415725 3.8511160756823477 -3.1072134639450892