194

C -5.0710522388059704 1.0783507462686561 0.47044029850746183
C -3.8153522388059704 0.1782507462686569 0.19534029850746193
C -4.11845223880597 -1.3219492537313435 0.5608402985074619
C -2.96945223880597 -2.3874492537313436 0.7034402985074619
C -2.52015223880597 0.7359507462686565 0.7384402985074618
C -2.20305223880597 0.7852507462686571 2.097440298507462
C -1.5755522388059702 1.205650746268656 -0.18965970149253808
C -0.9533522388059701 1.2695507462686564 2.508640298507462
H -2.91125223880597 0.4298507462686567 2.840840298507462
C -0.32655223880597006 1.6562507462686575 0.21554029850746192
H -1.7850522388059702 1.178550746268657 -1.2573597014925382
C 0.004447761194029898 1.6956507462686563 1.569740298507462
H -0.7158522388059702 1.2676507462686573 3.5705402985074617
H 0.3943477611940298 1.9193507462686572 -0.5551597014925382
C -1.76045223880597 -2.1592492537313435 -0.1734597014925381
C -0.5287522388059701 -1.936549253731343 0.464840298507462
C -1.8068522388059702 -2.121249253731343 -1.5681597014925381
C 0.6114477611940299 -1.614449253731343 -0.2582597014925381
H -0.4544522388059702 -1.954049253731343 1.5506402985074619
C -0.6479522388059701 -1.8270492537313432 -2.2998597014925384
H -2.74345223880597 -2.290549253731343 -2.092259701492538
C 0.5698477611940298 -1.5506492537313434 -1.6506597014925382
H 1.5072477611940298 -1.351949253731343 0.2991402985074618
H -0.7173522388059701 -1.7640492537313435 -3.3840597014925375
C 1.7791477611940298 -1.082849253731343 -2.4255597014925376
H 1.4739477611940297 -0.9102492537313429 -3.464259701492538
H 2.1252477611940295 -0.1337492537313434 -2.0010597014925384
C 1.3965477611940298 2.0964507462686566 1.997440298507462
H 1.51704776119403 1.8448507462686567 3.057640298507462
H 2.1256477611940294 1.5207507462686571 1.4165402985074618
C 3.94864776119403 -1.4275492537313434 -3.522959701492538
H 4.81734776119403 -2.087049253731343 -3.615159701492538
H 3.4305477611940303 -1.3641492537313429 -4.484459701492538
H 4.26984776119403 -0.441449253731343 -3.176459701492538
C 2.60904776119403 -3.4296492537313434 -2.8992597014925376
H 1.9825477611940296 -3.869549253731343 -2.119359701492538
H 2.06294776119403 -3.373349253731343 -3.845759701492538
H 3.5215477611940305 -4.019849253731343 -3.0234597014925377
C 3.7281477611940304 -2.060049253731343 -1.156659701492538
H 3.9048477611940298 -1.032549253731343 -0.8295597014925382
H 3.12924776119403 -2.623249253731343 -0.4404597014925382
H 4.68244776119403 -2.5769492537313434 -1.3005597014925383
C 3.1110477611940297 3.755250746268656 2.588740298507462
H 3.40124776119403 4.809350746268656 2.534540298507462
H 2.9823477611940303 3.461750746268656 3.634840298507462
H 3.86514776119403 3.1392507462686563 2.091540298507462
C 1.99744776119403 3.9574507462686572 0.40494029850746194
H 2.67914776119403 3.230350746268657 -0.04295970149253803
H 1.03214776119403 3.981150746268657 -0.10175970149253821
H 2.4399477611940297 4.958250746268657 0.368240298507462
C 0.7418477611940297 4.4992507462686575 2.475440298507462
H -0.18475223880597014 4.424250746268656 1.901240298507462
H 0.57844776119403 4.189650746268656 3.511940298507462
H 1.1210477611940297 5.524350746268658 2.4432402985074617
N 3.00114776119403 -2.025349253731343 -2.490159701492538
N 1.7831477611940298 3.586450746268657 1.862540298507462
C -3.55075223880597 -3.8435492537313434 0.6444402985074619
H -2.62515223880597 -2.2736492537313433 1.7424402985074618
H -4.67195223880597 -1.3478492537313436 1.5102402985074619
H -4.83415223880597 -1.6757492537313432 -0.1945597014925382
H -3.7169522388059697 0.17335074626865676 -0.900559701492538
H -3.9132522388059705 -4.043149253731343 -0.34225970149253815
H -4.35435223880597 -3.9354492537313432 1.3449402985074619
H -2.78115223880597 -4.545049253731343 0.8904402985074619
H -5.24235223880597 1.138950746268657 1.5249402985074618
H -5.92805223880597 0.6501507462686567 -0.006059701492538094
H -4.89895223880597 2.059650746268657 0.08004029850746197
C 2.4677395862589147 -1.2824992442424388 2.502847218790932
O 2.9725250182899265 -1.9933117641093483 1.6474451333306979
O 3.0805100660272338 -0.47530455465474786 3.2110707261146696
O 1.2660028538273973 -1.260365814376608 2.7926528805837867
O -4.161836843380679 4.394163521833034 6.299267088250465
H -4.248789123574567 4.542204471884251 5.345594956447812
H -3.6037910321617 5.127049314602609 6.599974972479434
O 3.6871325900319896 8.163542176387137 -1.2696471482988807
H 3.1125616702582115 7.406914923622143 -1.4603060463960171
H 3.341612864950081 8.515501880822002 -0.435559364949045
O -0.32529938958621774 -6.502120328587983 1.0317572500393921
H -0.6627963478762124 -6.878610119641031 1.8583881212738476
H -0.6506692600509518 -5.589418566255779 1.0402357363106316
O -0.31328918980196996 -3.6000447230160777 6.401174321363367
H -0.3028137133742319 -3.676701900204072 5.435264750813834
H 0.3161135190274542 -4.275076280075081 6.696380302658935
O -9.083218674190144 -0.7382242473391747 4.375251797797285
H -9.336415557050067 -1.5387608601603344 4.858987083819347
H -9.68803717931842 -0.06015276224837862 4.711964704085654
O -5.090440314855422 5.412917645363063 -0.1476418483682489
H -4.999577775325674 5.466849717679759 -1.1108669972227796
H -4.912811809930986 6.316095095129339 0.15514611832130734
O 7.3761037841696915 7.1788178158464255 1.9375979670770915
H 7.930415946658134 6.9899357215825475 1.165568862778634
H 6.695433992196444 6.48964639432429 1.9112668001403113
O 2.1161887397312844 3.995856746166567 -5.549650940848511
H 2.1118829542603876 4.104478483356454 -4.586764584458864
H 3.017792485759138 4.238822126144349 -5.808572654076261
O 4.959048722875176 -3.2895429134129426 -9.160073580578336
H 5.380070122624245 -3.2337811480372833 -8.289097712155149
H 5.053402245490277 -2.3961561368151276 -9.523280717719505
O 4.833113645303408 4.012000854182197 -10.281009991935022
H 4.389985479412302 4.421997124850307 -9.523047035365092
H 4.336438045973187 3.192982770962116 -10.4275864999043
O 1.9804375777807728 1.9199285985348702 13.711053423923566
H 2.7832799346694594 2.3471303357593607 14.045583217212293
H 2.1913339802157887 1.7158460845898005 12.787562774679177
O 2.5511594453703164 -9.341577869683734 1.8252835046216966
H 1.9244945140351333 -9.174436907515538 1.1053374514342647
H 2.4591489562914806 -8.567017548905769 2.4002203043447694
O -10.598532803569919 -5.156130194989387 -1.2548580161179554
H -10.589691185444385 -6.014103739523582 -0.8045574725158486
H -10.496799461497757 -5.38236102130163 -2.19157135788101
O 4.119204625931261 1.629981152102196 5.404422834753884
H 4.500246947566403 1.6921793032861523 6.293189112248816
H 3.261471167047923 1.202250015474103 5.546905579571856
O 7.17776071578446 1.7693051924891035 -5.686509919046732
H 7.147288121146741 1.7837326128835138 -6.654926475811852
H 6.319823030051154 2.1323844610965637 -5.419904749543122
O 5.805780477979487 -5.654362298649642 -1.182034201605974
H 5.940956214004071 -6.176885261624911 -0.37725806474942025
H 6.5875437015198095 -5.08338995091607 -1.2244462841232853
O 4.082088547661499 7.300849020821941 -3.327792283310152
H 4.449925225792874 6.409867676773744 -3.228717666584448
H 3.165010482280658 7.146520685670028 -3.6000284514924377
O -7.30660218507705 -1.8390823857337808 -1.9791964625799037
H -6.58245151643043 -2.1572133007147904 -1.419405531131385
H -8.048247499240691 -2.421359540704341 -1.7558637800667922
O 5.044703050886305 -4.2209268778300135 -4.4135472019342545
H 5.1293103161671985 -4.0626057329991125 -5.365777942175884
H 5.466843139639398 -5.083042356667926 -4.281196943469805
O -7.454353187085165 3.5391852656404796 -6.65833695710205
H -7.4163169010594086 2.7628301626072065 -7.236950257882082
H -6.909028074291954 4.197795874183159 -7.114203749018408
C -6.012057253182022 1.1700125642783465 11.55362446091668
O -5.476802863710627 0.09968230446957627 11.526901235263825
O -6.547311642653418 2.2403428240871173 11.580347686569533
O -7.323031602582077 -4.871022251928421 3.578474794114591
H -6.806147732817675 -4.2174650686830155 4.073107415668922
H -7.816005693781871 -4.340756730812345 2.9344585157324117
O 1.3405930975734468 -10.66203026565083 -5.3833854507235355
H 1.993461938744159 -10.928369610571975 -6.048060549155385
H 0.9092674264621465 -9.88818082118402 -5.775912070252445
O -15.370149904937538 -8.071803640857334 -0.6934570641613584
H -14.915709230357796 -7.258076837178538 -0.4283161220905436
H -15.447428829660769 -8.575846452499361 0.13051548157400816
O 7.005365417685497 -16.013727315269435 -10.950045554861134
H 7.209696527823896 -15.066661407449596 -10.933243156966928
H 6.197256259686846 -16.06942088856663 -11.481853564345856
O 20.70042596795834 -8.415708358130264 -5.3597495954522305
H 20.470300425157276 -7.709837804791263 -4.737048741607136
H 21.523333949411494 -8.782984401245631 -5.003529570026639
O -18.183453223499168 13.700103987222723 -7.176510137809292
H -17.330331291669303 14.011951128817822 -6.839016898455017
H -18.77552349900385 13.765390947862425 -6.412211540444204
O -10.715318081617761 8.61080342007816 -10.499079055826922
H -10.75148624295102 7.803154237162004 -9.96488618958792
H -9.946677791638326 8.477087892946583 -11.07377393724162
O 8.907272503914921 -14.673568060793823 7.38769484049188
H 9.286573603673338 -13.856549577717571 7.030513050735127
H 9.573824707620435 -14.984899644521734 8.018363334241801
O 13.720009338330087 -5.162494051695768 2.600722413545668
H 13.876222132300708 -6.117420903921264 2.652487525335336
H 13.318192531609553 -5.038037963073593 1.7277872039557565
O 6.691398288402643 5.004515060135835 -16.538122508580397
H 7.571199634190551 4.617572762856268 -16.414864213014535
H 6.381947711930844 5.174501490415114 -15.63573295936001
O -15.729945726701615 9.54273728570856 -9.081519917628349
H -15.660316105555363 8.87252739178372 -8.38514518313241
H -15.769133527175283 9.026194321266129 -9.900427498786968
O 8.780235593336068 -5.2964349915655085 2.938469690549722
H 8.466579037768671 -5.822089538190525 3.689651572427903
H 8.139777047134299 -4.571946239762196 2.876093065059104
O -5.005404668432208 -14.897794908928091 5.890381632237234
H -5.2122548255638375 -14.399891129350145 6.695535155285242
H -5.490967127066883 -14.429812016725583 5.194548997424505
O -4.525602739019086 0.24795169247857096 19.85493569090797
H -5.244957565927157 0.569668116460651 20.41884573022651
H -4.6265806776157135 -0.7155915954802283 19.873636825801885
O -7.851842514617092 -12.5584936702553 6.874617371882373
H -8.366433871449214 -11.873560920652244 6.421814742809975
H -6.930913625323534 -12.316731188962144 6.694609517044005
O -9.512929454846406 -2.5098550746386 1.7683227952132952
H -10.284231883170674 -2.4678376970722877 2.353382160528935
H -8.85337701413294 -1.9543104441152153 2.2102760571602404
O -4.304204950962436 -9.036958718412771 -11.886455667907272
H -4.124903829530288 -9.458604363533073 -12.740290203812364
H -4.23270041682823 -8.08896458251807 -12.073955439127154
O 17.139494984471266 -2.109515067707854 -2.0695980301439634
H 16.781923948890036 -1.7589230900017245 -2.8991735701531147
H 16.994442321744017 -3.0651838083146163 -2.137560722577535
O 3.9009965946599414 -2.7882810746808113 -14.86679204469947
H 3.319778336586264 -3.5102656757131006 -15.149441879749919
H 3.501701791726464 -2.476007003826767 -14.04095276897897
O -0.4818795358483232 11.308094807705084 3.5530196663582365
H -0.6627533265470849 11.06919441380318 2.6315107784294343
H -1.348466562674452 11.564275483271368 3.902820081885509