194

C -5.0710522388059704 1.0783507462686561 0.47044029850746183
C -3.8153522388059704 0.1782507462686569 0.19534029850746193
C -4.11845223880597 -1.3219492537313435 0.5608402985074619
C -2.96945223880597 -2.3874492537313436 0.7034402985074619
C -2.52015223880597 0.7359507462686565 0.7384402985074618
C -2.20305223880597 0.7852507462686571 2.097440298507462
C -1.5755522388059702 1.205650746268656 -0.18965970149253808
C -0.9533522388059701 1.2695507462686564 2.508640298507462
H -2.91125223880597 0.4298507462686567 2.840840298507462
C -0.32655223880597006 1.6562507462686575 0.21554029850746192
H -1.7850522388059702 1.178550746268657 -1.2573597014925382
C 0.004447761194029898 1.6956507462686563 1.569740298507462
H -0.7158522388059702 1.2676507462686573 3.5705402985074617
H 0.3943477611940298 1.9193507462686572 -0.5551597014925382
C -1.76045223880597 -2.1592492537313435 -0.1734597014925381
C -0.5287522388059701 -1.936549253731343 0.464840298507462
C -1.8068522388059702 -2.121249253731343 -1.5681597014925381
C 0.6114477611940299 -1.614449253731343 -0.2582597014925381
H -0.4544522388059702 -1.954049253731343 1.5506402985074619
C -0.6479522388059701 -1.8270492537313432 -2.2998597014925384
H -2.74345223880597 -2.290549253731343 -2.092259701492538
C 0.5698477611940298 -1.5506492537313434 -1.6506597014925382
H 1.5072477611940298 -1.351949253731343 0.2991402985074618
H -0.7173522388059701 -1.7640492537313435 -3.3840597014925375
C 1.7791477611940298 -1.082849253731343 -2.4255597014925376
H 1.4739477611940297 -0.9102492537313429 -3.464259701492538
H 2.1252477611940295 -0.1337492537313434 -2.0010597014925384
C 1.3965477611940298 2.0964507462686566 1.997440298507462
H 1.51704776119403 1.8448507462686567 3.057640298507462
H 2.1256477611940294 1.5207507462686571 1.4165402985074618
C 3.94864776119403 -1.4275492537313434 -3.522959701492538
H 4.81734776119403 -2.087049253731343 -3.615159701492538
H 3.4305477611940303 -1.3641492537313429 -4.484459701492538
H 4.26984776119403 -0.441449253731343 -3.176459701492538
C 2.60904776119403 -3.4296492537313434 -2.8992597014925376
H 1.9825477611940296 -3.869549253731343 -2.119359701492538
H 2.06294776119403 -3.373349253731343 -3.845759701492538
H 3.5215477611940305 -4.019849253731343 -3.0234597014925377
C 3.7281477611940304 -2.060049253731343 -1.156659701492538
H 3.9048477611940298 -1.032549253731343 -0.8295597014925382
H 3.12924776119403 -2.623249253731343 -0.4404597014925382
H 4.68244776119403 -2.5769492537313434 -1.3005597014925383
C 3.1110477611940297 3.755250746268656 2.588740298507462
H 3.40124776119403 4.809350746268656 2.534540298507462
H 2.9823477611940303 3.461750746268656 3.634840298507462
H 3.86514776119403 3.1392507462686563 2.091540298507462
C 1.99744776119403 3.9574507462686572 0.40494029850746194
H 2.67914776119403 3.230350746268657 -0.04295970149253803
H 1.03214776119403 3.981150746268657 -0.10175970149253821
H 2.4399477611940297 4.958250746268657 0.368240298507462
C 0.7418477611940297 4.4992507462686575 2.475440298507462
H -0.18475223880597014 4.424250746268656 1.901240298507462
H 0.57844776119403 4.189650746268656 3.511940298507462
H 1.1210477611940297 5.524350746268658 2.4432402985074617
N 3.00114776119403 -2.025349253731343 -2.490159701492538
N 1.7831477611940298 3.586450746268657 1.862540298507462
C -3.55075223880597 -3.8435492537313434 0.6444402985074619
H -2.62515223880597 -2.2736492537313433 1.7424402985074618
H -4.67195223880597 -1.3478492537313436 1.5102402985074619
H -4.83415223880597 -1.6757492537313432 -0.1945597014925382
H -3.7169522388059697 0.17335074626865676 -0.900559701492538
H -3.9132522388059705 -4.043149253731343 -0.34225970149253815
H -4.35435223880597 -3.9354492537313432 1.3449402985074619
H -2.78115223880597 -4.545049253731343 0.8904402985074619
H -5.24235223880597 1.138950746268657 1.5249402985074618
H -5.92805223880597 0.6501507462686567 -0.006059701492538094
H -4.89895223880597 2.059650746268657 0.08004029850746197
C 3.8841514972142632 -0.8551821574464253 2.497247044638299
O 3.4537136427268678 -0.4674257361274554 3.572488277920484
O 3.673779379198619 -0.3107212072247405 1.4073216757504512
O 4.596739294195276 -1.8520649774377986 2.3326516036328035
O -0.6312457867662791 5.137329397588614 5.439537992085304
H -1.2772426158698242 5.633734644734719 4.914907375085134
H -0.7845191582771629 5.440187120088385 6.347142761689307
O -8.129089542268847 -1.1672460728671856 1.296910933383306
H -7.436187743561506 -0.6131864122091977 1.6866189608598863
H -8.925108031702663 -0.9331455421045654 1.797424120298663
O 3.0575315801063483 -12.035752148151095 0.8113624436134748
H 2.954270540821569 -11.414869449901303 1.548118298479852
H 2.1596238432965613 -12.134136675356224 0.4605859830524097
O -5.836309788071136 -6.218024278216453 2.728395184564285
H -5.377608806188997 -5.819930758171255 1.9733572282876581
H -5.211945195190475 -6.115274050872171 3.4622706441878273
O 4.389789446367277 0.194391644208336 6.450332186939592
H 3.978086490469281 -0.44122120750597027 5.8457957234070275
H 5.109143491167953 -0.30699630135604394 6.862766218721205
O 5.7135509307147405 4.001150206465459 -4.833682268285872
H 6.492169643460807 3.4437230903934566 -4.981990283340053
H 5.4888180703364995 4.329217228499082 -5.7173276240820785
O 8.201484440286508 -6.368558914087089 5.656120149907057
H 8.20684140651589 -6.864540700709323 6.488550763923524
H 8.942320733366193 -6.742695264956456 5.155974648963476
O -6.392935944832787 1.8131483465829599 8.017589905650752
H -6.610653895445451 1.3949029794100816 7.171045716774915
H -6.289307442739116 2.750681290072527 7.795655100526343
O 2.8004239899807875 2.8584754285882346 -9.546052335065449
H 3.166272656720409 2.004095031742766 -9.820198732873305
H 2.6406631098965865 3.323453706631108 -10.381057488608231
O -1.5104134552643071 -4.276807355021799 6.987134476462133
H -1.2463516672337582 -3.739450975558675 6.225237599941174
H -2.478508920790611 -4.282047642182541 6.945593492869038
O 0.6204636691537178 2.121371767237813 -5.658398313751965
H 1.128802532589524 2.1683765959425796 -4.8347785574935145
H 0.34379454583667535 1.194148099267978 -5.710093671953091
O -7.22872840113572 -3.298633957941729 8.012690218071079
H -7.577206626997188 -4.119896727957183 7.634460465689028
H -6.831227476766197 -2.8425394486100033 7.255767000047728
O 0.8212211483992227 8.805511236991178 -5.447440912693629
H 1.0915714651672994 8.833526487273488 -6.37754478263237
H -0.11930111536662924 8.575185786115561 -5.48391010982903
O -1.551513930726003 -3.2309068066824453 -7.85729028011188
H -2.199435594266962 -3.154326648426312 -7.140840453413748
H -1.9878797232575436 -2.810426620542746 -8.613427339428672
O 8.184576261096009 0.07720968243202053 -1.0557406126602253
H 7.512818535621127 0.225306929000888 -1.7382185395732743
H 9.021579018611252 0.09360404345173068 -1.5437155640036688
O 3.924964513865791 -6.882203554410459 -4.376500803594744
H 3.685932136141216 -6.278238443133502 -5.0955675763353225
H 3.463763837091773 -7.704908654864363 -4.598789349701646
O 0.6980152006211966 0.6837514101416433 -10.707879198926781
H 0.002551453876363796 0.5648214612977731 -10.043685551613262
H 0.23630261949400078 1.080575490913176 -11.46174529157765
O 3.680899619338148 10.855514933251538 1.5991805223155957
H 3.895085542000291 11.17175242873412 0.7086269900199389
H 4.543965159725218 10.647736187960158 1.987649067118797
O 1.3971964429726471 -3.656706990271934 9.07500528394807
H 2.0926222336440126 -3.044538437427109 9.358906656746758
H 1.4824895139218364 -3.6765431395558172 8.109969759457059
O 2.206278008608158 -8.819944123431844 4.271547084088298
H 1.9613943206724263 -7.970912582400517 4.669221295745238
H 2.7453035216613793 -8.572666299005082 3.50521352869321
C 10.369037635046952 -10.534637714001613 -2.916241889438311
O 10.980410575147564 -11.04190424225151 -3.811631220807649
O 9.757664694946342 -10.027371185751717 -2.020852558068972
O 2.5704696546269967 -3.879644064187031 4.906670205598145
H 2.5367903318209666 -4.811235393446288 5.171189874742613
H 2.826602108898613 -3.4151830222971373 5.717616597621287
O -15.912142754963106 8.906257559728495 12.087446685525936
H -15.438065865323264 8.587632278433809 12.870195936390667
H -16.668102220266828 8.304919597865382 12.010766265991187
O 12.112547692168711 12.052353362809466 -9.382078925957273
H 12.280525283548894 12.428974054867197 -10.258952770936165
H 12.9953096254617 11.963603988820292 -8.992442092424625
O 8.056541735302304 -4.619403078704266 -19.331957702565134
H 8.056303341345444 -3.936481816574143 -20.01940650051224
H 8.701032396682567 -4.298458062445626 -18.683430117776048
O 19.642106865531776 11.500498082667285 -6.447015838115085
H 19.614368216539876 11.403458431945523 -7.410748804470342
H 18.99001895231821 10.858514885030445 -6.128266921736138
O -3.1975126421389266 -14.017575788942686 -12.030717077045765
H -4.1110451858864705 -14.104244066923947 -11.71940652790567
H -3.1743608436253026 -13.143296217305844 -12.447923463794677
O -7.774233132495272 8.142101161103119 -15.081256557969139
H -7.3921503846441565 7.380383167195527 -14.619991093781826
H -7.45506086630815 8.90541254172311 -14.57682941257252
O -0.8871591641378272 17.239025092027358 10.082848174527966
H -0.24406812511395287 16.75330879235879 9.544813836717198
H -0.8741156999555839 18.13412431405624 9.711917999069826
O -1.6438062879666682 -4.816096461166161 -4.521470326604145
H -1.5572139164311791 -4.355850360473142 -5.369787864374486
H -2.0318767079784186 -4.151214605622297 -3.933001626008736
O 16.955306839770298 -1.8049482666702554 2.1080425060215777
H 17.491098678146436 -2.4076672652706614 1.570804875586365
H 16.43720205864844 -1.3086581565854356 1.456716545606465
O -15.880251284404936 -3.6486388780145607 1.3606364804655957
H -16.0685680130182 -2.9688628211068817 0.6962505391036142
H -15.541482045727953 -4.394415131838881 0.842934706798574
O -2.304125679838436 5.914099554842457 18.625785785398847
H -2.02958876320498 5.720230605453334 19.534637626332316
H -2.929891444078513 5.205195679882164 18.41404431881445
O -4.360594234886631 6.152806621858204 -15.853528106050584
H -5.067514140365467 5.638958692913697 -15.434968779243455
H -4.716008093653352 7.053540833651567 -15.889871097142892
O 1.4944731806352722 -13.821973634085978 -9.21485754570511
H 1.5592129705932534 -14.067327774679502 -8.279669082244503
H 0.5414094765229365 -13.81573607806162 -9.389764987223522
O -5.5438631943899175 1.1366754923992255 -5.083872656762648
H -4.812994872122063 0.8644060796679913 -5.658910237531385
H -5.5141969065088885 0.5027506441333394 -4.351601434868443
O -0.07969180913758467 -5.43659737777948 -6.801135908860282
H 0.7291037619295555 -5.922661648556571 -6.580775735970275
H -0.6504031785709701 -6.104778892857361 -7.209527803990066
O -13.082977936481894 -9.301844038061661 -8.110686199191106
H -13.089285871342714 -9.083453049126852 -9.054737544621995
H -12.585261325794395 -10.13204109737686 -8.065820149107052
O 9.15338238320339 -3.449209410828135 1.8091020434903353
H 8.962769607264372 -3.7512740317633746 2.709874540477268
H 9.314037679822757 -4.268158418461401 1.316685204963633
O 1.812493460319609 -7.562663079992997 -22.913591441430285
H 1.1230307923101899 -7.962060287390493 -23.46503541595936
H 2.2845742795886608 -8.32289996194176 -22.541917487940026
O 12.40328019537256 -4.71033124002917 -5.301014194245777
H 11.888501008132094 -5.504158691775895 -5.091711250794548
H 11.754892436247847 -3.9917603024302997 -5.2539922232586616