194

C -5.0710522388059704 1.0783507462686561 0.47044029850746183
C -3.8153522388059704 0.1782507462686569 0.19534029850746193
C -4.11845223880597 -1.3219492537313435 0.5608402985074619
C -2.96945223880597 -2.3874492537313436 0.7034402985074619
C -2.52015223880597 0.7359507462686565 0.7384402985074618
C -2.20305223880597 0.7852507462686571 2.097440298507462
C -1.5755522388059702 1.205650746268656 -0.18965970149253808
C -0.9533522388059701 1.2695507462686564 2.508640298507462
H -2.91125223880597 0.4298507462686567 2.840840298507462
C -0.32655223880597006 1.6562507462686575 0.21554029850746192
H -1.7850522388059702 1.178550746268657 -1.2573597014925382
C 0.004447761194029898 1.6956507462686563 1.569740298507462
H -0.7158522388059702 1.2676507462686573 3.5705402985074617
H 0.3943477611940298 1.9193507462686572 -0.5551597014925382
C -1.76045223880597 -2.1592492537313435 -0.1734597014925381
C -0.5287522388059701 -1.936549253731343 0.464840298507462
C -1.8068522388059702 -2.121249253731343 -1.5681597014925381
C 0.6114477611940299 -1.614449253731343 -0.2582597014925381
H -0.4544522388059702 -1.954049253731343 1.5506402985074619
C -0.6479522388059701 -1.8270492537313432 -2.2998597014925384
H -2.74345223880597 -2.290549253731343 -2.092259701492538
C 0.5698477611940298 -1.5506492537313434 -1.6506597014925382
H 1.5072477611940298 -1.351949253731343 0.2991402985074618
H -0.7173522388059701 -1.7640492537313435 -3.3840597014925375
C 1.7791477611940298 -1.082849253731343 -2.4255597014925376
H 1.4739477611940297 -0.9102492537313429 -3.464259701492538
H 2.1252477611940295 -0.1337492537313434 -2.0010597014925384
C 1.3965477611940298 2.0964507462686566 1.997440298507462
H 1.51704776119403 1.8448507462686567 3.057640298507462
H 2.1256477611940294 1.5207507462686571 1.4165402985074618
C 3.94864776119403 -1.4275492537313434 -3.522959701492538
H 4.81734776119403 -2.087049253731343 -3.615159701492538
H 3.4305477611940303 -1.3641492537313429 -4.484459701492538
H 4.26984776119403 -0.441449253731343 -3.176459701492538
C 2.60904776119403 -3.4296492537313434 -2.8992597014925376
H 1.9825477611940296 -3.869549253731343 -2.119359701492538
H 2.06294776119403 -3.373349253731343 -3.845759701492538
H 3.5215477611940305 -4.019849253731343 -3.0234597014925377
C 3.7281477611940304 -2.060049253731343 -1.156659701492538
H 3.9048477611940298 -1.032549253731343 -0.8295597014925382
H 3.12924776119403 -2.623249253731343 -0.4404597014925382
H 4.68244776119403 -2.5769492537313434 -1.3005597014925383
C 3.1110477611940297 3.755250746268656 2.588740298507462
H 3.40124776119403 4.809350746268656 2.534540298507462
H 2.9823477611940303 3.461750746268656 3.634840298507462
H 3.86514776119403 3.1392507462686563 2.091540298507462
C 1.99744776119403 3.9574507462686572 0.40494029850746194
H 2.67914776119403 3.230350746268657 -0.04295970149253803
H 1.03214776119403 3.981150746268657 -0.10175970149253821
H 2.4399477611940297 4.958250746268657 0.368240298507462
C 0.7418477611940297 4.4992507462686575 2.475440298507462
H -0.18475223880597014 4.424250746268656 1.901240298507462
H 0.57844776119403 4.189650746268656 3.511940298507462
H 1.1210477611940297 5.524350746268658 2.4432402985074617
N 3.00114776119403 -2.025349253731343 -2.490159701492538
N 1.7831477611940298 3.586450746268657 1.862540298507462
C -3.55075223880597 -3.8435492537313434 0.6444402985074619
H -2.62515223880597 -2.2736492537313433 1.7424402985074618
H -4.67195223880597 -1.3478492537313436 1.5102402985074619
H -4.83415223880597 -1.6757492537313432 -0.1945597014925382
H -3.7169522388059697 0.17335074626865676 -0.900559701492538
H -3.9132522388059705 -4.043149253731343 -0.34225970149253815
H -4.35435223880597 -3.9354492537313432 1.3449402985074619
H -2.78115223880597 -4.545049253731343 0.8904402985074619
H -5.24235223880597 1.138950746268657 1.5249402985074618
H -5.92805223880597 0.6501507462686567 -0.006059701492538094
H -4.89895223880597 2.059650746268657 0.08004029850746197
C -2.6247467079566356 4.50072855263719 -0.013579110000372818
O -3.5763171652113557 4.344231963399568 0.735952731242568
O -2.1636856138667175 3.6377928545568237 -0.7694865862136719
O -1.9755708589820051 5.546268525863095 -0.1321761837199249
O 5.888390178321063 -4.537347926694383 2.8007903140516137
H 5.551748007922373 -4.617377649788809 3.705906135055031
H 6.73468271496062 -4.077182030301784 2.9056627819608827
O -8.598464499796235 2.0265628279351486 5.437898138694747
H -9.236711112909772 1.5790258800700157 6.013501559501697
H -8.274067581525577 2.7637198248356185 5.976719208844365
O 2.343534391987065 -3.2458496726062958 11.582019596759734
H 3.0942307384271244 -2.8658423569156586 12.062661659383414
H 2.510842899124726 -3.005047871552075 10.65844810502322
O 9.931813991576032 0.010852363228597284 4.4066424724036075
H 10.790625179464591 -0.31766578483645347 4.100886807126004
H 9.37773950482345 -0.007544108316262399 3.6118940988509696
O -10.38462185528794 1.1579448011051867 -0.717921242370859
H -10.493846113185853 0.7161384332694625 -1.5734003781342372
H -9.424222333896566 1.194931445348232 -0.5945247604159083
O -3.006372063895741 -2.619695097081951 -6.644771585870841
H -3.7232571397095913 -3.2173420597483036 -6.90527351099051
H -2.469648542499934 -3.149292622203921 -6.036153259441896
O -7.629070625877755 6.099076704350744 0.47789422448178875
H -7.012280473931494 5.5707576590491845 -0.05070415967555686
H -7.710768094805579 5.603740014665016 1.306706043727853
O 6.391390637581544 6.225205865322089 -0.6534848650419111
H 6.419701136500326 6.277047850316368 -1.620686127004913
H 6.799705417980129 7.054435984229103 -0.36259245485299796
O -7.976731096648582 -6.1986061319762 0.3825892257992738
H -8.792882664308884 -6.197775430040063 -0.13977394809406807
H -7.280677424488003 -6.031389006454737 -0.27048784676116533
O 0.37288007236380394 3.559429786733234 -4.302414616033801
H 0.8867539024431481 4.248326253689122 -4.749988857333813
H 0.9267965277274484 2.7679528899557746 -4.377931677979411
O -5.291087461631913 -6.941193234921027 -5.199176995656065
H -4.933090589716719 -7.376737315879327 -5.987280383633255
H -4.504645172968018 -6.6314593452913915 -4.725325343220422
O 1.2953654211458563 2.0065272733062245 8.185393181993298
H 0.4713541552125564 2.3561967623012556 8.556478130463262
H 1.2220104176225335 1.048865742863325 8.313710682233348
O 3.464007236315767 0.6489997369423715 -7.909926971313443
H 4.363793266077196 0.48201525903514053 -8.228468399834467
H 3.0862282268476617 -0.23662522165430033 -7.8007784623179495
O 11.5741450604563 -0.1095536101218233 -6.313437173415824
H 11.310414802932478 0.292009060342322 -5.471914072214126
H 10.740639452955975 -0.20605558984125283 -6.798120280688758
O -3.1680427671899336 0.6561063514100416 -6.300367261586639
H -3.5097628523540574 1.3788303048649184 -5.752768113123113
H -3.905817571801347 0.4405415408862794 -6.890436829048345
O 1.6321151258134199 -4.855457411640663 3.2070004193658237
H 1.262587355351003 -5.7507956983893935 3.235034970172388
H 1.9350453263068452 -4.698769022142858 4.113997655594026
O 4.872547181128523 -8.799666539344326 -2.442237549324686
H 4.92756483182057 -8.640645105307506 -3.3965187440095668
H 5.543649626669643 -9.47935991135674 -2.2791413447976563
O -5.4048081837840405 6.315234610874466 4.8545386106981105
H -5.053893120498067 6.288502774142895 5.75737380283672
H -5.265532838739646 5.415594850384485 4.522555743808424
O 0.5078063782086706 6.828654915089453 4.014248316873247
H -0.08633285614867692 6.73012288120322 4.773364490719851
H 0.8643484143503497 7.724487344784432 4.110809068065108
O 5.810156335869257 -8.762148664408953 4.506274768090881
H 5.408255243615177 -8.632241543193226 3.6341698381642003
H 5.760325220287085 -7.887158267051976 4.91963975058567
C -1.2263485104827425 17.408394155413227 -3.073090018305883
O -0.823090458885761 18.514268484392638 -2.8557350790324825
O -1.6296065620797244 16.30251982643382 -3.290444957579284
O 7.248195011693028 4.655521276540643 4.485096305111349
H 7.61114184886437 4.409486488242209 5.349216570603521
H 7.250794079921122 3.8254304485017827 3.9851919079011386
O -6.984357356247891 -12.85385630888827 6.655221142881507
H -6.517337351696499 -12.012781326026843 6.539236034124085
H -7.900780745192131 -12.647441796220917 6.417475132491742
O 6.988358054608899 10.102000639676536 -1.5961577594969245
H 7.822572495292673 10.482180870862948 -1.9100313258731043
H 7.212141435761728 9.181061321363176 -1.3942822666694683
O 10.177823465163591 3.8051199109375338 -5.442337438270121
H 9.52603702253849 4.341197275656164 -5.918533667934369
H 10.448774516862468 3.1366695151889528 -6.089424403296336
O -1.6971103955221922 12.143946733872893 -12.339473199732348
H -1.9978689222170103 12.190987324544128 -11.419528175097907
H -2.1451258284605754 12.887229000573786 -12.770490123016124
O 3.37989789901812 6.318039518593031 14.765231852238356
H 3.310166511467399 6.30892534489859 13.798783807939998
H 4.258961428768492 6.689617846237051 14.932978093293382
O 12.815835496325636 -9.338660071652928 12.26522265379691
H 12.875832839643945 -9.645817202781696 13.18229526405822
H 12.464477588151908 -8.438896098459338 12.342257432998675
O -18.493515147434522 7.605263308564762 -12.66399195813283
H -17.651279238426508 7.3883612283635625 -13.091261800365864
H -18.277218621239935 7.630828327023601 -11.719786373057548
O -9.119646492362914 4.006026476077601 -20.340820973531912
H -8.35715740720148 3.4082902815611344 -20.3578266688912
H -9.544030504327129 3.8685801249410545 -21.201035281276447
O 13.276329721540884 -0.19377065207045074 1.4849512481236864
H 12.804655787883936 -0.04150509941238045 0.6523011062980129
H 14.128462845679934 0.24906271000069147 1.3556079201867928
O 12.097030582202514 7.456209138594664 7.879649814010705
H 12.801551835811692 7.5780045250785495 8.533701068840319
H 11.81228668417405 8.358744445772354 7.67153235646995
O 14.695115769060841 3.434616098372187 -1.1138594797728467
H 14.871980554117672 2.483611048873674 -1.0566266174022378
H 15.217272556075187 3.7242849651441343 -1.8770148910082713
O -12.418876085734116 0.8149105496243241 -4.714094721853106
H -11.531909961668584 0.8646613479238097 -5.101113209433133
H -12.47014981592111 -0.08617023790520673 -4.361410212357904
O 6.607908429100514 13.600558208181255 7.7329645523869885
H 6.746737141350707 13.73542305294342 8.682440944511738
H 7.066255822003726 14.348260155359526 7.320870619036044
O -7.358209712600473 -5.284131644333687 -10.563703930947762
H -6.432320421859948 -5.569239575972567 -10.543459289468936
H -7.3187327609664505 -4.343999119835904 -10.33228580077834
O 12.661942738559414 1.7207407435476716 -8.535874229523806
H 12.980560443575783 1.464317101294788 -7.657411350032666
H 12.882127642039976 2.6622741917999075 -8.599082760605548
O 2.369259403559087 -13.1902318663936 -7.428726539997695
H 2.152777848082015 -13.237724317904764 -8.372043856751548
H 2.2636134659430476 -14.102010688196701 -7.118146018592094
O -5.433101368030389 1.476355606494403 18.743420048944913
H -4.676269939563886 0.9400818988249906 19.023748528140047
H -5.02907658032463 2.2717864373051118 18.365245871329485
O -1.3294304021241112 14.125683836836513 10.949114230427725
H -1.884666167428577 14.20594384726905 10.159026303325852
H -1.1050801199471376 13.183615226279079 10.982813313345439
O -10.494336715670745 -0.20045733365925233 -11.869219515430869
H -9.555327041364883 0.03310378242018963 -11.817475979450727
H -10.88433858087402 0.513167665107729 -12.39609696851915