194

C -5.0710522388059704 1.0783507462686561 0.47044029850746183
C -3.8153522388059704 0.1782507462686569 0.19534029850746193
C -4.11845223880597 -1.3219492537313435 0.5608402985074619
C -2.96945223880597 -2.3874492537313436 0.7034402985074619
C -2.52015223880597 0.7359507462686565 0.7384402985074618
C -2.20305223880597 0.7852507462686571 2.097440298507462
C -1.5755522388059702 1.205650746268656 -0.18965970149253808
C -0.9533522388059701 1.2695507462686564 2.508640298507462
H -2.91125223880597 0.4298507462686567 2.840840298507462
C -0.32655223880597006 1.6562507462686575 0.21554029850746192
H -1.7850522388059702 1.178550746268657 -1.2573597014925382
C 0.004447761194029898 1.6956507462686563 1.569740298507462
H -0.7158522388059702 1.2676507462686573 3.5705402985074617
H 0.3943477611940298 1.9193507462686572 -0.5551597014925382
C -1.76045223880597 -2.1592492537313435 -0.1734597014925381
C -0.5287522388059701 -1.936549253731343 0.464840298507462
C -1.8068522388059702 -2.121249253731343 -1.5681597014925381
C 0.6114477611940299 -1.614449253731343 -0.2582597014925381
H -0.4544522388059702 -1.954049253731343 1.5506402985074619
C -0.6479522388059701 -1.8270492537313432 -2.2998597014925384
H -2.74345223880597 -2.290549253731343 -2.092259701492538
C 0.5698477611940298 -1.5506492537313434 -1.6506597014925382
H 1.5072477611940298 -1.351949253731343 0.2991402985074618
H -0.7173522388059701 -1.7640492537313435 -3.3840597014925375
C 1.7791477611940298 -1.082849253731343 -2.4255597014925376
H 1.4739477611940297 -0.9102492537313429 -3.464259701492538
H 2.1252477611940295 -0.1337492537313434 -2.0010597014925384
C 1.3965477611940298 2.0964507462686566 1.997440298507462
H 1.51704776119403 1.8448507462686567 3.057640298507462
H 2.1256477611940294 1.5207507462686571 1.4165402985074618
C 3.94864776119403 -1.4275492537313434 -3.522959701492538
H 4.81734776119403 -2.087049253731343 -3.615159701492538
H 3.4305477611940303 -1.3641492537313429 -4.484459701492538
H 4.26984776119403 -0.441449253731343 -3.176459701492538
C 2.60904776119403 -3.4296492537313434 -2.8992597014925376
H 1.9825477611940296 -3.869549253731343 -2.119359701492538
H 2.06294776119403 -3.373349253731343 -3.845759701492538
H 3.5215477611940305 -4.019849253731343 -3.0234597014925377
C 3.7281477611940304 -2.060049253731343 -1.156659701492538
H 3.9048477611940298 -1.032549253731343 -0.8295597014925382
H 3.12924776119403 -2.623249253731343 -0.4404597014925382
H 4.68244776119403 -2.5769492537313434 -1.3005597014925383
C 3.1110477611940297 3.755250746268656 2.588740298507462
H 3.40124776119403 4.809350746268656 2.534540298507462
H 2.9823477611940303 3.461750746268656 3.634840298507462
H 3.86514776119403 3.1392507462686563 2.091540298507462
C 1.99744776119403 3.9574507462686572 0.40494029850746194
H 2.67914776119403 3.230350746268657 -0.04295970149253803
H 1.03214776119403 3.981150746268657 -0.10175970149253821
H 2.4399477611940297 4.958250746268657 0.368240298507462
C 0.7418477611940297 4.4992507462686575 2.475440298507462
H -0.18475223880597014 4.424250746268656 1.901240298507462
H 0.57844776119403 4.189650746268656 3.511940298507462
H 1.1210477611940297 5.524350746268658 2.4432402985074617
N 3.00114776119403 -2.025349253731343 -2.490159701492538
N 1.7831477611940298 3.586450746268657 1.862540298507462
C -3.55075223880597 -3.8435492537313434 0.6444402985074619
H -2.62515223880597 -2.2736492537313433 1.7424402985074618
H -4.67195223880597 -1.3478492537313436 1.5102402985074619
H -4.83415223880597 -1.6757492537313432 -0.1945597014925382
H -3.7169522388059697 0.17335074626865676 -0.900559701492538
H -3.9132522388059705 -4.043149253731343 -0.34225970149253815
H -4.35435223880597 -3.9354492537313432 1.3449402985074619
H -2.78115223880597 -4.545049253731343 0.8904402985074619
H -5.24235223880597 1.138950746268657 1.5249402985074618
H -5.92805223880597 0.6501507462686567 -0.006059701492538094
H -4.89895223880597 2.059650746268657 0.08004029850746197
C 1.7503408425657798 -1.4036138270689373 2.766421395411092
O 1.0725942105761124 -0.4960486597096423 2.309518267360127
O 2.113681622000488 -2.406174247976635 2.1407317402871175
O 2.177754837260693 -1.4599396419947372 3.9252108776346244
O -6.3765871297012575 1.2329998547707262 5.607162629361492
H -5.842490610999242 1.006182316500629 4.831107173905195
H -5.985619912662742 0.7082764003705062 6.321845689118373
O -9.632027807387555 -1.4626885094137472 -0.3832416019340332
H -9.923739611961985 -0.7026407667674954 0.14230478885394193
H -9.161678169206539 -1.0637734025018366 -1.1306370124366953
O -0.18945147416410713 10.68418484338821 5.062300582531144
H 0.42926870219124247 11.42984258999546 5.074434221532097
H -1.0395439583581076 11.081461288530765 5.3041189828892765
O 7.212130156174638 2.946243806054382 -3.7913925580179226
H 8.153144742068502 3.0510908845884894 -3.585319764670862
H 6.896001285605589 2.3152774651300443 -3.1273850594809787
O -2.9940537514576495 6.055273014208577 -1.5960354027268728
H -2.603046582926929 5.645830429454026 -2.3824433889828
H -2.3477424995747063 5.88082576040484 -0.8954557387129678
O 0.9709518258769074 9.954308521934774 3.0344223863212454
H 1.9375809511068298 10.002189278902303 2.986433593156045
H 0.7873452909151798 9.006406034038145 3.1164678496859444
O -0.1569027213311982 -10.057809412944266 4.1079674007437115
H -0.3775574344492746 -10.410693599108397 4.983039743829734
H -0.487256112244824 -9.147195988384702 4.132701434457855
O -3.156319331995274 -5.790709452175451 7.645108052317067
H -3.1465113227856967 -5.8986852460351615 6.682189370498238
H -2.8624759420524972 -6.651164107591651 7.980124160078358
O -4.567479410242574 -6.498544791391967 -2.56951336143512
H -3.993743945434617 -6.064938033237418 -1.9200673262602928
H -4.026477332205773 -6.534569042458908 -3.3726204210448145
O 0.6036110509206508 3.5453319037323845 -6.722450957418348
H 1.1872461213602397 2.9055802941547437 -6.287646013224064
H 0.7547186670095218 3.3952302478348684 -7.667754044029602
O -6.058006167980537 -6.31326498976196 2.387066104600679
H -6.313511996604468 -7.235124942085607 2.5415276102939877
H -6.817888528617951 -5.803261229751035 2.705557716840045
O 1.711246586070511 -5.609306171210376 -7.141442726503353
H 1.6927097202531258 -5.437158160044131 -6.188033683250053
H 1.5155362465528006 -6.5556914599096645 -7.212254396723899
O -2.594267871768658 -2.209423087982464 8.615570128810013
H -3.330748926924341 -2.300451615576013 9.238688752717952
H -2.6711873301228897 -2.9900404717271094 8.04663969244529
O -0.7924372028379734 6.9990351786485 6.937882577865059
H -1.3654595789329282 7.114353591311007 7.710743740749761
H 0.034466691141836536 6.655982645629825 7.308701744050545
O 8.692425439950114 -1.6427010729429365 4.607950155890501
H 8.661299570889438 -1.3023054263340177 3.7012366725094967
H 8.846406437570513 -0.8537062612744846 5.149003742730188
O -6.255608360613505 -1.1656881949680407 -2.422923830288318
H -5.362746533277563 -0.9101904858845569 -2.699484917282521
H -6.1087261925669445 -1.896429809387981 -1.8037273623034937
O -6.180833884566245 -0.6305842741669041 -10.862852638597388
H -6.250000355067096 0.04988799764104623 -10.17645563717694
H -5.714249033885115 -1.3582242439854362 -10.42490218964528
O 6.315611578492166 6.5239158413999245 -1.0461599466260307
H 6.36978838673936 6.2260835052546195 -0.1256556664108992
H 5.725164620635354 5.880433891867504 -1.4659995765844123
O -2.070239532935121 -7.687495485391791 -1.7867119488969627
H -2.918109234507406 -7.825311509332705 -2.2351437381368005
H -1.4597789964776013 -7.461689610258798 -2.5045640119875556
O 5.83569342539999 0.43480566719211966 -0.693237159875369
H 5.825668113553892 1.0444980984514016 -1.4463254609978442
H 5.789314236581284 1.0170606569219247 0.07993167167390003
C 1.460121314378874 6.233705504490303 17.29187559030494
O 1.599085479484075 6.634650831900026 16.17261241189473
O 1.3211571492736733 5.83276017708058 18.411138768715148
O -2.527291070702396 -4.15635736592258 18.064381660438865
H -1.7748718259298883 -4.077548036633253 17.458888698784534
H -3.1040343796820573 -4.807588864508649 17.637501542494107
O 14.208234230811483 16.29421018268296 3.925862883697305
H 13.488246760238658 15.890851947866683 4.433689166518552
H 14.979567257764113 15.747680647945135 4.138730855669017
O -2.093284042102745 14.024652008822352 -11.875323550700598
H -2.6106945202746843 14.774929310149718 -12.204470516493716
H -2.0304206156280937 13.430898119990223 -12.63851844940511
O 16.84357420270194 3.451281013350326 3.153946563953223
H 16.159918577452714 2.9201315787819437 2.7186735219177924
H 17.07802155054867 2.9334289037842005 3.9386921138007827
O -10.038723695931754 7.262296600510157 -16.53092211966011
H -9.697499085452119 7.935481402101014 -17.13866823853715
H -10.596126323314314 7.762799631552402 -15.916299494625413
O -3.056090452941051 0.3381636201350542 -5.969160856109019
H -3.6441667858614086 -0.39999141672661276 -6.188844094237686
H -2.4641618259440294 0.4013881863518465 -6.733742505815653
O -9.159933917373344 -15.66080634562024 7.465976608431429
H -8.540380334145738 -16.311286976821393 7.102664534806032
H -8.931644225699307 -14.838425107431059 7.007135829892948
O -9.366814923966444 -9.782944459115603 4.788843357916738
H -8.75899405791629 -9.62474629438372 5.526742058531872
H -9.363995165622587 -10.746437965867631 4.685720830263656
O 1.735354439701007 2.868912587873332 -15.585913202260446
H 1.8566378852295902 2.390986898429367 -16.420086276694178
H 2.154000016020407 3.7281288267102193 -15.745428971534803
O 9.355002874796854 7.32173986955681 0.25027580465530685
H 9.314141921257178 7.305208723552749 -0.7177244332514933
H 9.626126237668041 8.228631491444041 0.4576442028170511
O -3.7440981110965508 -12.005619844884894 0.9676602147622531
H -3.1536612128377826 -11.956377274200268 0.20089636890948004
H -3.9470185168062497 -12.949844683801945 1.046557025969516
O -14.035467612579128 -7.879951834462986 6.474111995692042
H -14.065185049960604 -7.953411729577503 7.439869664377745
H -14.646711710251973 -8.566806043984966 6.168213495823148
O 14.58540801106327 -2.820326940965475 -1.9803923635280292
H 14.234337088366544 -1.9177477903450124 -2.013064079156587
H 13.793997056448564 -3.3779574301374975 -1.939418191643636
O -10.374589473206838 -0.6305075738900959 -11.668731076899673
H -10.481423186612933 -1.2920488122499605 -10.968790290454734
H -11.236661118177192 -0.1897456961314914 -11.707761710417678
O 7.81160364075653 8.835497343474868 -4.782601112694394
H 8.506963564356948 8.727231630543676 -4.116477648947676
H 7.555571883120611 7.927392967950913 -5.003409007789001
O 6.961622374306235 -4.594796724290139 -8.747293017270497
H 6.296772259364966 -3.926187762286299 -8.523901572737074
H 7.500637043643543 -4.169557949264609 -9.431103747483164
O 12.783628836260933 10.31346882237982 9.070597156554529
H 13.119645165597788 11.104698790259802 8.623366208108841
H 13.305233826710664 9.590579219073588 8.690701381808754
O 7.956011658152082 -10.347453176297776 -1.2507582005798268
H 8.085773447292832 -9.597092655419853 -0.6515184124425542
H 7.318691767316931 -10.018951694190502 -1.9025803214833719
O 2.8182130216126566 -8.506640559530119 -8.057579448718728
H 3.7216374085778936 -8.71505061923058 -8.33928316000443
H 2.5151715474548357 -7.85433776629288 -8.706909006936396
O -8.920812032488485 -6.511016344085875 -8.511213211485561
H -8.567517003312998 -7.248794286153435 -7.991758028184394
H -8.284523038307707 -5.795194807251225 -8.36391152246573