194

C -5.0710522388059704 1.0783507462686561 0.47044029850746183
C -3.8153522388059704 0.1782507462686569 0.19534029850746193
C -4.11845223880597 -1.3219492537313435 0.5608402985074619
C -2.96945223880597 -2.3874492537313436 0.7034402985074619
C -2.52015223880597 0.7359507462686565 0.7384402985074618
C -2.20305223880597 0.7852507462686571 2.097440298507462
C -1.5755522388059702 1.205650746268656 -0.18965970149253808
C -0.9533522388059701 1.2695507462686564 2.508640298507462
H -2.91125223880597 0.4298507462686567 2.840840298507462
C -0.32655223880597006 1.6562507462686575 0.21554029850746192
H -1.7850522388059702 1.178550746268657 -1.2573597014925382
C 0.004447761194029898 1.6956507462686563 1.569740298507462
H -0.7158522388059702 1.2676507462686573 3.5705402985074617
H 0.3943477611940298 1.9193507462686572 -0.5551597014925382
C -1.76045223880597 -2.1592492537313435 -0.1734597014925381
C -0.5287522388059701 -1.936549253731343 0.464840298507462
C -1.8068522388059702 -2.121249253731343 -1.5681597014925381
C 0.6114477611940299 -1.614449253731343 -0.2582597014925381
H -0.4544522388059702 -1.954049253731343 1.5506402985074619
C -0.6479522388059701 -1.8270492537313432 -2.2998597014925384
H -2.74345223880597 -2.290549253731343 -2.092259701492538
C 0.5698477611940298 -1.5506492537313434 -1.6506597014925382
H 1.5072477611940298 -1.351949253731343 0.2991402985074618
H -0.7173522388059701 -1.7640492537313435 -3.3840597014925375
C 1.7791477611940298 -1.082849253731343 -2.4255597014925376
H 1.4739477611940297 -0.9102492537313429 -3.464259701492538
H 2.1252477611940295 -0.1337492537313434 -2.0010597014925384
C 1.3965477611940298 2.0964507462686566 1.997440298507462
H 1.51704776119403 1.8448507462686567 3.057640298507462
H 2.1256477611940294 1.5207507462686571 1.4165402985074618
C 3.94864776119403 -1.4275492537313434 -3.522959701492538
H 4.81734776119403 -2.087049253731343 -3.615159701492538
H 3.4305477611940303 -1.3641492537313429 -4.484459701492538
H 4.26984776119403 -0.441449253731343 -3.176459701492538
C 2.60904776119403 -3.4296492537313434 -2.8992597014925376
H 1.9825477611940296 -3.869549253731343 -2.119359701492538
H 2.06294776119403 -3.373349253731343 -3.845759701492538
H 3.5215477611940305 -4.019849253731343 -3.0234597014925377
C 3.7281477611940304 -2.060049253731343 -1.156659701492538
H 3.9048477611940298 -1.032549253731343 -0.8295597014925382
H 3.12924776119403 -2.623249253731343 -0.4404597014925382
H 4.68244776119403 -2.5769492537313434 -1.3005597014925383
C 3.1110477611940297 3.755250746268656 2.588740298507462
H 3.40124776119403 4.809350746268656 2.534540298507462
H 2.9823477611940303 3.461750746268656 3.634840298507462
H 3.86514776119403 3.1392507462686563 2.091540298507462
C 1.99744776119403 3.9574507462686572 0.40494029850746194
H 2.67914776119403 3.230350746268657 -0.04295970149253803
H 1.03214776119403 3.981150746268657 -0.10175970149253821
H 2.4399477611940297 4.958250746268657 0.368240298507462
C 0.7418477611940297 4.4992507462686575 2.475440298507462
H -0.18475223880597014 4.424250746268656 1.901240298507462
H 0.57844776119403 4.189650746268656 3.511940298507462
H 1.1210477611940297 5.524350746268658 2.4432402985074617
N 3.00114776119403 -2.025349253731343 -2.490159701492538
N 1.7831477611940298 3.586450746268657 1.862540298507462
C -3.55075223880597 -3.8435492537313434 0.6444402985074619
H -2.62515223880597 -2.2736492537313433 1.7424402985074618
H -4.67195223880597 -1.3478492537313436 1.5102402985074619
H -4.83415223880597 -1.6757492537313432 -0.1945597014925382
H -3.7169522388059697 0.17335074626865676 -0.900559701492538
H -3.9132522388059705 -4.043149253731343 -0.34225970149253815
H -4.35435223880597 -3.9354492537313432 1.3449402985074619
H -2.78115223880597 -4.545049253731343 0.8904402985074619
H -5.24235223880597 1.138950746268657 1.5249402985074618
H -5.92805223880597 0.6501507462686567 -0.006059701492538094
H -4.89895223880597 2.059650746268657 0.08004029850746197
C 2.9550874475770903 -0.35065882075327526 2.917290480271289
O 3.8963601264509125 0.12106704473295826 3.536367172157651
O 1.8066106633154047 -0.4801867882168127 3.3564431254377523
O 3.0053518552652205 -0.7715144866388137 1.7558248620923425
O 7.615467305203456 -2.1908090378454843 -0.945747482003624
H 7.714244073661308 -2.998373642567149 -0.41939216844274796
H 8.239224373187401 -2.310639220910192 -1.6775464924339119
O -5.266411058033701 6.63769450012738 2.2937867760779804
H -5.10447910012531 7.547443206300519 2.0020631234129036
H -4.563039480855977 6.4700470977222295 2.9388640715901744
O -2.666817653147241 6.301849484637129 7.636272748827495
H -3.040766814393073 5.6532805714363565 7.021059170845744
H -3.2631421384165837 7.0623575062656485 7.565656875208814
O -4.796280132282385 6.77258823937313 -5.289290146061423
H -5.427572986737067 6.634250983962229 -4.56727941720773
H -5.097262397264186 7.59219630350633 -5.709545118279782
O -1.956077328662466 -0.15135227987862399 -8.193721913044932
H -2.760448235537087 -0.21286299763659988 -7.65690608552622
H -2.2463711968441964 0.30239532593044327 -8.999205944307269
O 0.8815011377591032 -6.7223434820416985 0.19050460246058565
H -0.03375409162259385 -6.9539730651632015 -0.02772224788651867
H 0.859796797074529 -6.556676837532082 1.1449916001679252
O -4.802364506640206 -0.03950454901637457 -10.73746428877013
H -4.180431865007943 -0.6740875584311947 -11.124079795875504
H -4.3805693708308 0.2247673260006806 -9.90607317516445
O -11.546700319808533 -2.7753437122854523 -0.61478219979832
H -11.162880406359822 -2.2960760226910613 0.13485245298333837
H -11.473109980853684 -2.152351943295024 -1.3533129453212709
O -5.089305399256637 4.157533145271426 4.562346638413667
H -5.000802024302849 3.9542165598561305 5.505637089768314
H -5.523990584718614 5.023467003978026 4.549335635939447
O 0.03792007579247114 -9.339220439748027 0.38976291377666694
H 0.5205478290594314 -9.592425912743678 1.1909650088322996
H -0.8840892522990194 -9.277862830063171 0.6814750783259695
O -8.119927640845427 1.4168525748662328 0.14330168121991416
H -7.692625512844732 0.9915462318961894 0.9019153924956376
H -8.711417490456741 0.7332788995292985 -0.20573804788429495
O 10.912285779614024 -3.1947275532099044 -1.0021109759433173
H 11.432219216870358 -3.4135463407756332 -1.7899909896072526
H 10.183223226129957 -2.656284971319635 -1.344907305291561
O -1.5817675950333843 -5.963659705170876 2.56801071120585
H -2.0000407068303523 -5.972803139492868 3.442042380229622
H -1.6502898779026007 -6.88188095172101 2.266122679918907
O 5.538972651103557 5.054634662693881 -1.430215093496361
H 5.506059508005528 4.900003005848826 -2.386234514121676
H 4.726970343052857 4.642894079724238 -1.0984261721078465
O 7.115405743528411 2.946705609813713 -2.614196875530432
H 7.679605374082763 2.172904696998057 -2.466283789199327
H 6.221283829940586 2.6237442744876467 -2.4265697883962742
O 2.6766578657751414 5.07623671392388 -7.290892604963158
H 2.760568982948161 5.351779936843929 -6.365688728178367
H 1.7579835935643682 5.287248851129677 -7.515555472010314
O 4.810132973122746 4.8887157587737216 5.3851942546924505
H 4.838639458059622 4.9715490985797866 6.35022968152046
H 4.556044892405611 5.773209115534794 5.08175942909886
O 8.430289789438419 4.854448737882661 7.647097902734359
H 8.765107855776058 4.743485741894548 6.744572871017639
H 7.6194639153408 4.324093463277883 7.662802325446484
O 0.5551037932493772 3.9652213297521506 -9.866780177348122
H 0.8107351648723085 4.228566681628212 -8.969969615196085
H 1.0377669790446697 4.581273924886265 -10.438162180395523
O -9.081196504570917 -1.2463735727083156 2.3502697247906967
H -8.997123982001996 -0.8203355652368538 3.2165207184632267
H -8.875315052496557 -2.1767884682448964 2.526061915047851
C -3.919872635774605 -16.394846986331267 -4.673712744070825
O -4.473465822124336 -15.335268170991192 -4.613334143476914
O -3.366279449424874 -17.454425801671338 -4.734091344664736
O -5.109955124663151 -2.374062286958255 9.199578524668894
H -5.155439940068641 -2.1224870214241105 10.134248720106278
H -4.810726978331468 -1.5671278993668896 8.754290578654798
O 2.4749958907255616 -15.565499863003255 -15.853705586992854
H 2.5188268666363145 -15.601754533127348 -14.886373275248381
H 3.402719831124571 -15.51106893034244 -16.128164159969195
O 2.0605168768280606 17.349602160558362 -5.2446849178287
H 1.5402053877122945 16.692678743659297 -4.758171880466087
H 2.94448914060452 17.284719810749248 -4.853091682625168
O 3.126639897690124 1.5213534069602084 -8.312158859843851
H 3.0511181496345667 1.0209849849212078 -9.138533632387661
H 3.2227452839396316 2.4406325252534775 -8.603108342922583
O -16.10551733675509 6.383419726687727 4.752936151306165
H -16.3458810182632 6.455663652083546 5.688870696429525
H -16.691139898181376 5.689910180048127 4.413742005471885
O -0.5370576435526138 -8.481344311842966 -9.311458491277387
H -0.7486661729850494 -8.982868720578553 -8.509796184184268
H 0.4188716029469566 -8.600258017005244 -9.416438254619386
O 8.436011116828075 -1.3409121838740337 20.725786734609997
H 8.652526383271525 -0.8455020056494646 19.92163671651112
H 7.656049747361534 -1.8598419092597336 20.4781294178374
O -10.96657846615213 -14.942061243161579 -17.339116491370458
H -11.156649459487966 -14.781110810366695 -16.40266823728726
H -10.041945063639593 -14.67045006356366 -17.44032114726887
O -10.863211846211184 11.713778581192502 3.7977007805307377
H -10.655114609308928 11.705849334906429 4.744062246328549
H -11.026148527471054 10.782314839898131 3.5860669437892714
O -2.8302224911071416 -10.396018214451024 -12.02316614231092
H -3.418852697440766 -10.17881642900356 -12.761613988465317
H -2.061279712795866 -9.822532040072984 -12.160288553973558
O 0.019252055882984564 1.978959037001292 -5.616691965756443
H 0.18408532259871616 2.1257062687796857 -4.673154684537942
H 0.8877811290143849 2.102962193954624 -6.028082790266565
O -7.452772690002517 1.2858652323042525 11.34999300963727
H -7.748271276418374 0.8304718024706803 10.547331956395837
H -8.275383164855697 1.489297157860249 11.819981735700358
O -1.2507654194026134 -7.678020340555333 -17.58719802391187
H -1.3444713438422298 -8.33761230666886 -16.88354683556397
H -1.5949564792698112 -8.125462574603278 -18.374782880164
O -6.1731347709524975 11.433257143326276 0.0544335455427154
H -6.655443148104328 11.420489495246251 0.894780481868227
H -6.86690665274718 11.33654822198839 -0.6151110047784165
O 14.223416893311603 2.8855482001026607 -6.782527179986344
H 14.425145205254914 3.7498467185865048 -7.17145020065642
H 13.697450525154288 3.0992579648242122 -5.997256869628144
O -3.0102982670174083 1.5667901760460947 16.680451763600868
H -3.116586994628248 1.4555215397053702 15.723744204390766
H -2.6349958294427127 0.7230102139542289 16.97395713020042
O 1.073893301984696 15.254042378247098 8.91691776616628
H 1.1747386574269454 15.090338031923618 9.866653760103821
H 1.757026246350203 14.700154144722477 8.51010189948273
O -4.414287688511864 4.403585738153593 -7.801354690036893
H -4.590030115671848 4.267446341835695 -6.858196155660982
H -3.557933524868682 4.856773984026514 -7.8168435413050945
O 5.029828305232657 -7.101742317271029 -12.633444295293087
H 5.816686931141385 -7.663795958161517 -12.570861833734153
H 5.313691023037475 -6.2581620237124325 -12.250356589852077
O -8.65648033657794 -4.318650293128473 4.6241020005415026
H -8.966671706642098 -3.578856098550024 5.167658088269113
H -8.568482493895377 -5.05048097661361 5.253102934318942