194

C -5.0710522388059704 1.0783507462686561 0.47044029850746183
C -3.8153522388059704 0.1782507462686569 0.19534029850746193
C -4.11845223880597 -1.3219492537313435 0.5608402985074619
C -2.96945223880597 -2.3874492537313436 0.7034402985074619
C -2.52015223880597 0.7359507462686565 0.7384402985074618
C -2.20305223880597 0.7852507462686571 2.097440298507462
C -1.5755522388059702 1.205650746268656 -0.18965970149253808
C -0.9533522388059701 1.2695507462686564 2.508640298507462
H -2.91125223880597 0.4298507462686567 2.840840298507462
C -0.32655223880597006 1.6562507462686575 0.21554029850746192
H -1.7850522388059702 1.178550746268657 -1.2573597014925382
C 0.004447761194029898 1.6956507462686563 1.569740298507462
H -0.7158522388059702 1.2676507462686573 3.5705402985074617
H 0.3943477611940298 1.9193507462686572 -0.5551597014925382
C -1.76045223880597 -2.1592492537313435 -0.1734597014925381
C -0.5287522388059701 -1.936549253731343 0.464840298507462
C -1.8068522388059702 -2.121249253731343 -1.5681597014925381
C 0.6114477611940299 -1.614449253731343 -0.2582597014925381
H -0.4544522388059702 -1.954049253731343 1.5506402985074619
C -0.6479522388059701 -1.8270492537313432 -2.2998597014925384
H -2.74345223880597 -2.290549253731343 -2.092259701492538
C 0.5698477611940298 -1.5506492537313434 -1.6506597014925382
H 1.5072477611940298 -1.351949253731343 0.2991402985074618
H -0.7173522388059701 -1.7640492537313435 -3.3840597014925375
C 1.7791477611940298 -1.082849253731343 -2.4255597014925376
H 1.4739477611940297 -0.9102492537313429 -3.464259701492538
H 2.1252477611940295 -0.1337492537313434 -2.0010597014925384
C 1.3965477611940298 2.0964507462686566 1.997440298507462
H 1.51704776119403 1.8448507462686567 3.057640298507462
H 2.1256477611940294 1.5207507462686571 1.4165402985074618
C 3.94864776119403 -1.4275492537313434 -3.522959701492538
H 4.81734776119403 -2.087049253731343 -3.615159701492538
H 3.4305477611940303 -1.3641492537313429 -4.484459701492538
H 4.26984776119403 -0.441449253731343 -3.176459701492538
C 2.60904776119403 -3.4296492537313434 -2.8992597014925376
H 1.9825477611940296 -3.869549253731343 -2.119359701492538
H 2.06294776119403 -3.373349253731343 -3.845759701492538
H 3.5215477611940305 -4.019849253731343 -3.0234597014925377
C 3.7281477611940304 -2.060049253731343 -1.156659701492538
H 3.9048477611940298 -1.032549253731343 -0.8295597014925382
H 3.12924776119403 -2.623249253731343 -0.4404597014925382
H 4.68244776119403 -2.5769492537313434 -1.3005597014925383
C 3.1110477611940297 3.755250746268656 2.588740298507462
H 3.40124776119403 4.809350746268656 2.534540298507462
H 2.9823477611940303 3.461750746268656 3.634840298507462
H 3.86514776119403 3.1392507462686563 2.091540298507462
C 1.99744776119403 3.9574507462686572 0.40494029850746194
H 2.67914776119403 3.230350746268657 -0.04295970149253803
H 1.03214776119403 3.981150746268657 -0.10175970149253821
H 2.4399477611940297 4.958250746268657 0.368240298507462
C 0.7418477611940297 4.4992507462686575 2.475440298507462
H -0.18475223880597014 4.424250746268656 1.901240298507462
H 0.57844776119403 4.189650746268656 3.511940298507462
H 1.1210477611940297 5.524350746268658 2.4432402985074617
N 3.00114776119403 -2.025349253731343 -2.490159701492538
N 1.7831477611940298 3.586450746268657 1.862540298507462
C -3.55075223880597 -3.8435492537313434 0.6444402985074619
H -2.62515223880597 -2.2736492537313433 1.7424402985074618
H -4.67195223880597 -1.3478492537313436 1.5102402985074619
H -4.83415223880597 -1.6757492537313432 -0.1945597014925382
H -3.7169522388059697 0.17335074626865676 -0.900559701492538
H -3.9132522388059705 -4.043149253731343 -0.34225970149253815
H -4.35435223880597 -3.9354492537313432 1.3449402985074619
H -2.78115223880597 -4.545049253731343 0.8904402985074619
H -5.24235223880597 1.138950746268657 1.5249402985074618
H -5.92805223880597 0.6501507462686567 -0.006059701492538094
H -4.89895223880597 2.059650746268657 0.08004029850746197
C 2.2215296838223195 -2.9334917769123865 2.386103316364353
O 1.753448878307355 -4.025583891033879 2.668964894494205
O 1.676172623127587 -1.845904915201234 2.6060395768665447
O 3.3130269825751943 -2.746897055766476 1.8361356434456095
O 4.382691580353303 6.65974067883177 4.484935534898069
H 3.7364724009036605 6.759041257113341 3.7697379928410664
H 4.7586890956182515 5.778507410530823 4.339967470641772
O 5.568183254790093 0.5948485081406215 7.6601519987149
H 5.505082815252974 0.5189922273728694 6.696185445302227
H 6.393688459662351 0.13629488705112278 7.877480500330585
O -2.224442135930353 8.032610731042983 6.9679906365279995
H -2.2950353272636246 8.053218559446398 6.001781924268645
H -1.577434337302547 7.332197880433715 7.140515102955807
O -7.046674916313787 -6.289179346181952 1.5173487597330928
H -6.227188282241492 -6.440205684096191 2.0119193398660755
H -6.947748694324993 -6.840350522947737 0.7265353298992008
O -6.641284326008957 -2.690770942166733 -5.857490280647222
H -6.610607224528741 -2.7225298173004293 -6.825486998717596
H -6.208234067206494 -3.51284530463174 -5.582493625705979
O -7.5318451000859845 5.0991293786140215 -7.719279356592208
H -7.646401007095143 4.628983302863716 -6.879751531844333
H -7.357839746780304 6.014459830207713 -7.453094748272617
O -4.016014396763562 4.040821539498335 4.403069512763252
H -4.248743558521695 4.700603388990954 3.732627565054535
H -4.536053365133084 3.2616880547781966 4.155133172818872
O -1.9891009192130176 -3.8807765974533917 8.186902671370195
H -1.1422473841458112 -3.781231742729396 7.726579666359416
H -1.816965114218675 -3.527568403460746 9.072665156822929
O -4.245288828295623 3.1851420384489035 -2.89076306694819
H -4.993764236265373 3.6988548209996504 -2.551866183503555
H -4.571061005839128 2.8210492785998964 -3.7275849684685176
O -0.1763158511678129 -0.6322860434722646 8.488870276024263
H -0.5856104868866929 -0.5014384718919156 9.357388652964715
H -0.8808867351033769 -0.40932487390449235 7.862108654133431
O -0.5790508159337526 -4.769291592971127 3.1615074469456026
H -0.7242397197033306 -4.881746520184176 2.210065683899804
H -0.7218118159780402 -3.822399674643918 3.309753648154848
O 4.521454823033885 4.829927847773316 7.143265925696165
H 5.054703518805112 5.637872729580863 7.186140782188918
H 5.177444867997275 4.1168174625765594 7.13265537747931
O 5.841962232841309 -2.5538984346817193 -8.950495602965075
H 5.694400405078775 -1.9354027401082852 -9.68169731226389
H 6.678280527316566 -2.988087854448457 -9.176356627466033
O 7.034572632260087 -3.016607651794609 3.693623014498916
H 6.83532989723402 -2.6187618432682935 2.832816182464355
H 7.8584235629433365 -3.503490703599811 3.541384772991741
O 6.1277986186651745 -5.450862773724958 -4.325108545198498
H 6.34137397045685 -6.395510674113352 -4.2935923541395535
H 5.165295482802635 -5.424747893112996 -4.21616970563519
O -3.5297490694531426 -0.9073956491430892 5.9026911483312965
H -2.6476521689939534 -0.6792024106372891 5.572842302645083
H -3.9850584675026326 -1.2646716781681877 5.1255109019071705
O 1.0159342160861913 -7.69139410033185 3.14196636072755
H 1.7895702483266276 -7.436892223106136 2.616910705574819
H 0.9636855734764791 -8.652604246314416 3.0310290860827314
O 9.601384357098624 7.242107681126746 0.954284852060053
H 10.290800096764194 7.126614327732111 1.6253545802724343
H 9.749201372525256 6.508875862584944 0.3382627952079915
O -9.13083526974834 0.8487215059315996 -4.7404673361811165
H -8.435678773570373 0.2436247915088412 -5.039771143234015
H -8.65095746294372 1.5307571546798728 -4.247003448269439
O -2.599439524684075 7.727652263027552 -9.299834916592866
H -2.2883004328016847 7.442643648893652 -10.172147883521637
H -2.0883136811823304 7.18545448901891 -8.680372334781257
C -8.483891039475465 -2.9361849837375256 -10.695906252935382
O -7.446474896920276 -3.4813966757310317 -10.45232830775254
O -9.521307182030649 -2.3909732917440176 -10.939484198118226
O -12.542249886640857 -13.140408144068754 9.474407619388495
H -11.863599150167422 -13.21639501882254 10.161886004248133
H -12.430400719593292 -13.94440780537498 8.945223102655204
O 9.757250388970238 16.61342470947249 -5.884228277319532
H 10.643091905904603 16.629586594727648 -6.276645093014814
H 9.190103327999502 16.289191328728883 -6.5998950086573975
O 0.7857459207297386 -15.679998824870276 -5.450920871751959
H 0.634291718755366 -15.619183615772156 -4.495760941715811
H 1.7032400911475534 -15.38853630508993 -5.561446846584197
O -19.098962178553155 -1.0161311758307918 -10.587411673886372
H -18.756166936843112 -0.7115853709626436 -9.733766178438659
H -19.143368300362948 -1.9793627498035216 -10.491625581222404
O 13.191582797459867 -9.614447788489263 -8.40410704180715
H 13.79875324275433 -10.351567036486635 -8.239891873528716
H 12.7876652330936 -9.829742017252599 -9.258191897402671
O -5.288799531787752 -11.231018989254 -2.089026118926121
H -5.4641731340395285 -11.818259481824118 -2.8395992735348115
H -4.749987388579017 -10.520653160176161 -2.4685308059977915
O 2.8902765258892824 13.324475671068754 0.5814646836234711
H 3.6126215007777738 13.861614099295714 0.22276229573733453
H 3.22969977119238 12.417831924176696 0.5396206748594896
O 4.646355974010637 -12.012425662493474 14.237590292923693
H 5.007195929685981 -12.0363662445877 15.136583469659318
H 4.786363681995179 -11.09664727264432 13.95349571942711
O -4.239371689572973 15.542277114939775 8.720986636272546
H -4.735950528651645 15.107000258705355 9.43014872769168
H -3.965437153421825 16.386025778242868 9.110871244045022
O 7.594150308889816 -15.968169271283802 -10.090829303197076
H 8.352456175444267 -15.669801988212251 -10.615154139573917
H 7.915493872309596 -15.939338860887716 -9.177117605786414
O 1.655617371558621 8.015453407724298 21.551066855360983
H 0.8686304075413889 8.084530482581227 20.989954359424427
H 1.541678230053399 7.170217721427711 22.011019516994537
O 12.10390926143427 5.8075938492300185 0.6595496620138059
H 12.047526555093857 5.681865675684447 1.6187059442236589
H 12.370518589857376 6.733880628068487 0.5601805840930072
O -11.689486191509573 -1.246359501714473 -8.573377711709517
H -11.448534479157942 -1.2142741036996152 -9.51139698467199
H -12.597821617395045 -0.9094778166603399 -8.553392000400072
O 2.28199001952002 -14.817994548950931 5.973926451509867
H 2.104676477550928 -14.685033120974122 6.917244278864329
H 1.892068042035186 -15.684133409940314 5.782285460961574
O 9.957131036350786 14.699842244712986 -1.5419979427577664
H 9.390818560956847 14.872398038716229 -2.309123770161004
H 9.96575309812961 13.733553844603017 -1.4700651118417132
O -1.5659749866004207 18.149316734797342 -5.953223430881078
H -1.9358596499371172 17.340023192369415 -6.336885593353178
H -2.2716465302069726 18.47873922841295 -5.376620935617646
O -10.349396013468677 9.415155815834517 0.25576278710405326
H -10.291007315408297 8.797513347536855 -0.48859995927299726
H -9.559024310284995 9.222576722742438 0.782249071835535
O 16.503663024199778 -1.7810340797329367 7.409938992583008
H 16.75973248496989 -1.4011334765572077 6.556082259947129
H 16.890466882874 -2.6693803785948873 7.396316492335025
O 2.049239478078353 -1.6327612332405583 8.302460667377856
H 2.568099993003137 -1.6206551197652337 7.484166976232366
H 2.7143001098533572 -1.7344727465553271 8.999820738232398
O -6.14777421660398 -15.36287955309125 -6.954781245218851
H -6.321722054332755 -16.313220371541885 -6.88020353114777
H -6.77241714414844 -14.96105353004279 -6.332431661327492