194

C -5.0710522388059704 1.0783507462686561 0.47044029850746183
C -3.8153522388059704 0.1782507462686569 0.19534029850746193
C -4.11845223880597 -1.3219492537313435 0.5608402985074619
C -2.96945223880597 -2.3874492537313436 0.7034402985074619
C -2.52015223880597 0.7359507462686565 0.7384402985074618
C -2.20305223880597 0.7852507462686571 2.097440298507462
C -1.5755522388059702 1.205650746268656 -0.18965970149253808
C -0.9533522388059701 1.2695507462686564 2.508640298507462
H -2.91125223880597 0.4298507462686567 2.840840298507462
C -0.32655223880597006 1.6562507462686575 0.21554029850746192
H -1.7850522388059702 1.178550746268657 -1.2573597014925382
C 0.004447761194029898 1.6956507462686563 1.569740298507462
H -0.7158522388059702 1.2676507462686573 3.5705402985074617
H 0.3943477611940298 1.9193507462686572 -0.5551597014925382
C -1.76045223880597 -2.1592492537313435 -0.1734597014925381
C -0.5287522388059701 -1.936549253731343 0.464840298507462
C -1.8068522388059702 -2.121249253731343 -1.5681597014925381
C 0.6114477611940299 -1.614449253731343 -0.2582597014925381
H -0.4544522388059702 -1.954049253731343 1.5506402985074619
C -0.6479522388059701 -1.8270492537313432 -2.2998597014925384
H -2.74345223880597 -2.290549253731343 -2.092259701492538
C 0.5698477611940298 -1.5506492537313434 -1.6506597014925382
H 1.5072477611940298 -1.351949253731343 0.2991402985074618
H -0.7173522388059701 -1.7640492537313435 -3.3840597014925375
C 1.7791477611940298 -1.082849253731343 -2.4255597014925376
H 1.4739477611940297 -0.9102492537313429 -3.464259701492538
H 2.1252477611940295 -0.1337492537313434 -2.0010597014925384
C 1.3965477611940298 2.0964507462686566 1.997440298507462
H 1.51704776119403 1.8448507462686567 3.057640298507462
H 2.1256477611940294 1.5207507462686571 1.4165402985074618
C 3.94864776119403 -1.4275492537313434 -3.522959701492538
H 4.81734776119403 -2.087049253731343 -3.615159701492538
H 3.4305477611940303 -1.3641492537313429 -4.484459701492538
H 4.26984776119403 -0.441449253731343 -3.176459701492538
C 2.60904776119403 -3.4296492537313434 -2.8992597014925376
H 1.9825477611940296 -3.869549253731343 -2.119359701492538
H 2.06294776119403 -3.373349253731343 -3.845759701492538
H 3.5215477611940305 -4.019849253731343 -3.0234597014925377
C 3.7281477611940304 -2.060049253731343 -1.156659701492538
H 3.9048477611940298 -1.032549253731343 -0.8295597014925382
H 3.12924776119403 -2.623249253731343 -0.4404597014925382
H 4.68244776119403 -2.5769492537313434 -1.3005597014925383
C 3.1110477611940297 3.755250746268656 2.588740298507462
H 3.40124776119403 4.809350746268656 2.534540298507462
H 2.9823477611940303 3.461750746268656 3.634840298507462
H 3.86514776119403 3.1392507462686563 2.091540298507462
C 1.99744776119403 3.9574507462686572 0.40494029850746194
H 2.67914776119403 3.230350746268657 -0.04295970149253803
H 1.03214776119403 3.981150746268657 -0.10175970149253821
H 2.4399477611940297 4.958250746268657 0.368240298507462
C 0.7418477611940297 4.4992507462686575 2.475440298507462
H -0.18475223880597014 4.424250746268656 1.901240298507462
H 0.57844776119403 4.189650746268656 3.511940298507462
H 1.1210477611940297 5.524350746268658 2.4432402985074617
N 3.00114776119403 -2.025349253731343 -2.490159701492538
N 1.7831477611940298 3.586450746268657 1.862540298507462
C -3.55075223880597 -3.8435492537313434 0.6444402985074619
H -2.62515223880597 -2.2736492537313433 1.7424402985074618
H -4.67195223880597 -1.3478492537313436 1.5102402985074619
H -4.83415223880597 -1.6757492537313432 -0.1945597014925382
H -3.7169522388059697 0.17335074626865676 -0.900559701492538
H -3.9132522388059705 -4.043149253731343 -0.34225970149253815
H -4.35435223880597 -3.9354492537313432 1.3449402985074619
H -2.78115223880597 -4.545049253731343 0.8904402985074619
H -5.24235223880597 1.138950746268657 1.5249402985074618
H -5.92805223880597 0.6501507462686567 -0.006059701492538094
H -4.89895223880597 2.059650746268657 0.08004029850746197
C -0.7377460132724275 3.0223943023683937 -3.458317608114234
O -0.8730609670685334 2.954126984428101 -2.2463749794471854
O -1.5151149204038106 2.540628049317937 -4.29032140843433
O 0.19751232632275784 3.5838181093192896 -4.040334387602953
O -4.376080599139449 -1.0451339582261872 9.357530572530457
H -4.491536764342332 -0.5704714538806126 10.194389424299999
H -4.88816989589209 -1.8589770485445762 9.47747189481931
O -0.7204998984809841 8.534128181532077 -0.6616047869486317
H -1.3857466505960763 8.695269700008009 -1.3474965617379167
H -0.5602073414449573 7.579735631074274 -0.7106262117494455
O 3.7846368358564053 -0.9438078062486057 5.465407181737464
H 4.054309483896892 -0.14318984379352484 5.940017440784934
H 4.616090250007633 -1.4183884915965361 5.315672958892607
O 5.022722676471728 8.926401523494533 -0.6159796316347739
H 4.980655989325044 9.204738324839932 -1.5431939411389561
H 5.9532966439803365 8.690416142426042 -0.48443140771196813
O 10.537129297300908 -1.3877692096666472 -1.1314861654664137
H 10.759235267750697 -0.7349621960166786 -1.812279304180345
H 9.570227982306278 -1.3515310866726797 -1.0790400998034122
O -3.166801864184992 4.682800887292815 -6.877430233714371
H -3.230242629669611 4.672310250605032 -7.844297635541846
H -3.2515012505708185 5.620300799332138 -6.64746964323825
O 0.7191274529784389 -10.34623818742423 8.639650603975166
H 1.402430784137895 -10.160730878872581 7.978098676307869
H 0.8683732685024406 -9.67696408017816 9.324310957886905
O 2.3397803422428667 7.168431833103056 5.596276543755355
H 1.8012504221540122 6.95419613311504 4.819709774623596
H 1.9625355595004934 6.620746243836161 6.30103807328363
O -4.549579164150588 -8.0624308467591 7.040927714939178
H -5.012569759036044 -8.39348282031366 6.256700925832071
H -4.227036987547454 -7.18941138860313 6.7711768775110635
O 1.985921130284301 -9.706169042550323 -1.5347392607125507
H 2.655222599779398 -10.250463011513999 -1.9760407168414367
H 2.4899432507559345 -8.960079376346648 -1.1765858629074144
O -6.792675053826298 5.187640300514595 2.582834078213406
H -6.72917612598269 5.88411805896313 1.9121225343667119
H -6.765595735734025 4.365818398731119 2.0701573607972077
O 8.087771569454917 1.7629263971429903 -0.7877011120242816
H 7.483002795278853 1.823046301715129 -1.5424246930496914
H 7.8757320195567075 2.5441334822178336 -0.25505051002722157
O -5.810617649734254 2.232739982877719 -6.268550032830591
H -6.156793649999565 2.8065166686526224 -6.968485636012399
H -5.974542774253845 1.3364078843940848 -6.598215419365422
O -2.1184671481393784 -4.703124200082847 5.881455419437188
H -1.654723374707999 -5.1432031558781865 6.609630935483773
H -1.577026020204729 -3.920721115367578 5.6980191571854615
O 0.6737149013854804 2.56034393740704 -8.500101880005827
H 0.47933865293319533 1.659881023267046 -8.19951616644624
H -0.1831512549464409 2.8958259152318 -8.803736820333427
O 5.537020371740477 -7.991024589330191 6.665899006557854
H 5.5321668962391115 -8.07986331703167 7.630809096222139
H 4.856579511593307 -7.324238386785756 6.488816143924144
O -8.02750516016376 6.447301427244796 -1.1569514653184574
H -7.1885966449819705 6.691208375895417 -0.7377745808705778
H -8.526861758444936 7.277359151496318 -1.1816315476407442
O 1.0758186708683226 -3.5608190823260837 7.389917893116134
H 0.45715328488868856 -3.5863440380726432 6.644552899488979
H 0.8000141153025475 -2.7821604552969585 7.896459632741093
O -6.928766054395681 -5.201479119337853 -4.934259899031552
H -6.960997572181856 -5.242679945620285 -5.901850193564752
H -6.256796112882471 -4.527826330364665 -4.750928881712119
O -8.26065355229006 -7.061886201473186 -3.2722190711795767
H -8.944242486220046 -7.496477482966441 -2.7404259306084384
H -8.451846444882943 -7.347795214657458 -4.1781237341005495
C 13.170589722833718 15.362332815528372 0.7309560983581349
O 12.695627021408246 14.63887614790095 1.557901767444105
O 13.64555242425919 16.085789483155793 -0.09598957072783332
O 10.938445170619335 7.697876513336391 -9.297256902876764
H 10.844617357691973 6.977585006054303 -9.938617833210508
H 10.044207313550032 8.063798809505151 -9.223762192518254
O -13.144638219722825 0.12741449315884318 8.441523742953407
H -12.427148792145418 0.18594637429820438 7.792871064623213
H -12.785546532113464 -0.444071622769549 9.136806939565366
O -3.214239858291131 2.3280336193474 -17.031351866989457
H -2.353588558600089 2.166047263912926 -16.61661445862945
H -3.490300635080578 3.1841170768099927 -16.6709721981993
O -14.023121107343542 -7.724925684918566 -7.409448183765497
H -14.006948838167201 -7.792007976202611 -8.375991395839211
H -13.507131657336819 -8.489702734494683 -7.113082031475111
O 7.658416100504235 -11.11298802968353 -14.801494227508222
H 7.7741702057875095 -11.13377876882415 -13.839654277632954
H 8.181993432609456 -11.86502600383908 -15.116561850461762
O 3.65408619468055 -7.8936736448073255 1.3387165325155186
H 4.032105518056081 -7.588981992797598 2.1773056722319173
H 4.3452665425686705 -8.458757915676408 0.9620051870404827
O -3.4787640849585415 -8.01558213831284 -7.108408277653104
H -3.096742116650352 -7.324294184897339 -6.547028247644425
H -2.7915786133822347 -8.698049496545327 -7.139655307937882
O -13.182622670060551 5.244284939403567 5.669537885030397
H -13.495655766453948 5.37596630319146 4.761993034406845
H -12.639734837963767 6.027332363625791 5.84580891918007
O -5.6348691627821115 2.788457327844565 20.051742070597296
H -6.334615996334268 2.904689255766172 19.391581586498653
H -5.668845512819059 1.8438248017436996 20.264995306376882
O 13.597622241939517 -1.4280212600903028 1.070306558679784
H 13.134102555138568 -0.5866839388704133 0.9427590429435206
H 14.204195085973263 -1.2520065660352804 1.8051876080051348
O 11.579930696798737 -13.517636043383131 -9.748824151623552
H 12.165622686914945 -13.471202631952671 -10.519392894771524
H 11.403173660690866 -12.589678102175828 -9.532923818514357
O 4.8620020795697885 4.17573543665093 -0.13384378207879344
H 5.1248245260505145 4.597995300301781 0.6977741145993939
H 5.183575558146032 4.783370392344805 -0.8167289867766812
O 11.441086435849316 17.28662618595618 2.752422161978409
H 11.83099048003215 17.475374269934434 3.6192072299303275
H 11.904677816931102 16.489054265698904 2.4559023351475524
O 10.948268880729294 9.02811194052171 -2.779742455931541
H 10.256551040622796 9.289443131217318 -3.4060010250130484
H 11.574508335203284 9.76726063196598 -2.8008446334576234
O 7.623217409097533 4.341522106679324 10.308030863400864
H 6.814553910319682 4.552158570930622 9.81745672774747
H 7.868620381605589 3.4605835435884074 9.987583405237256
O 18.76713865119563 4.872091926635256 9.256048036564657
H 18.940108315718756 4.795765114887908 10.206428523455694
H 17.81866083474943 5.063898410707357 9.205431352780094
O -0.27970619862336754 10.513390882020492 -9.935931834556058
H -0.35420837215813705 10.681984960904739 -8.984620728973994
H -1.0651999559695762 10.93892601949384 -10.311273476591248
O -4.915088725948435 13.698066143748127 -9.531064555137604
H -4.943220048949252 13.812875435202809 -10.492831061188788
H -4.197918387408041 13.061393560295988 -9.392224102465356
O 4.401538430145595 16.88191772872254 -12.787810265974892
H 4.107449514353526 16.827099052414173 -13.709479392742217
H 4.253042401012708 15.989274659348897 -12.441256916069038
O -13.392852365625924 12.952773708282537 -4.185934016586641
H -13.934228727222964 12.815780687675945 -4.977837990758405
H -12.554991961598121 12.51384528977453 -4.396394775609379