194

C -5.0710522388059704 1.0783507462686561 0.47044029850746183
C -3.8153522388059704 0.1782507462686569 0.19534029850746193
C -4.11845223880597 -1.3219492537313435 0.5608402985074619
C -2.96945223880597 -2.3874492537313436 0.7034402985074619
C -2.52015223880597 0.7359507462686565 0.7384402985074618
C -2.20305223880597 0.7852507462686571 2.097440298507462
C -1.5755522388059702 1.205650746268656 -0.18965970149253808
C -0.9533522388059701 1.2695507462686564 2.508640298507462
H -2.91125223880597 0.4298507462686567 2.840840298507462
C -0.32655223880597006 1.6562507462686575 0.21554029850746192
H -1.7850522388059702 1.178550746268657 -1.2573597014925382
C 0.004447761194029898 1.6956507462686563 1.569740298507462
H -0.7158522388059702 1.2676507462686573 3.5705402985074617
H 0.3943477611940298 1.9193507462686572 -0.5551597014925382
C -1.76045223880597 -2.1592492537313435 -0.1734597014925381
C -0.5287522388059701 -1.936549253731343 0.464840298507462
C -1.8068522388059702 -2.121249253731343 -1.5681597014925381
C 0.6114477611940299 -1.614449253731343 -0.2582597014925381
H -0.4544522388059702 -1.954049253731343 1.5506402985074619
C -0.6479522388059701 -1.8270492537313432 -2.2998597014925384
H -2.74345223880597 -2.290549253731343 -2.092259701492538
C 0.5698477611940298 -1.5506492537313434 -1.6506597014925382
H 1.5072477611940298 -1.351949253731343 0.2991402985074618
H -0.7173522388059701 -1.7640492537313435 -3.3840597014925375
C 1.7791477611940298 -1.082849253731343 -2.4255597014925376
H 1.4739477611940297 -0.9102492537313429 -3.464259701492538
H 2.1252477611940295 -0.1337492537313434 -2.0010597014925384
C 1.3965477611940298 2.0964507462686566 1.997440298507462
H 1.51704776119403 1.8448507462686567 3.057640298507462
H 2.1256477611940294 1.5207507462686571 1.4165402985074618
C 3.94864776119403 -1.4275492537313434 -3.522959701492538
H 4.81734776119403 -2.087049253731343 -3.615159701492538
H 3.4305477611940303 -1.3641492537313429 -4.484459701492538
H 4.26984776119403 -0.441449253731343 -3.176459701492538
C 2.60904776119403 -3.4296492537313434 -2.8992597014925376
H 1.9825477611940296 -3.869549253731343 -2.119359701492538
H 2.06294776119403 -3.373349253731343 -3.845759701492538
H 3.5215477611940305 -4.019849253731343 -3.0234597014925377
C 3.7281477611940304 -2.060049253731343 -1.156659701492538
H 3.9048477611940298 -1.032549253731343 -0.8295597014925382
H 3.12924776119403 -2.623249253731343 -0.4404597014925382
H 4.68244776119403 -2.5769492537313434 -1.3005597014925383
C 3.1110477611940297 3.755250746268656 2.588740298507462
H 3.40124776119403 4.809350746268656 2.534540298507462
H 2.9823477611940303 3.461750746268656 3.634840298507462
H 3.86514776119403 3.1392507462686563 2.091540298507462
C 1.99744776119403 3.9574507462686572 0.40494029850746194
H 2.67914776119403 3.230350746268657 -0.04295970149253803
H 1.03214776119403 3.981150746268657 -0.10175970149253821
H 2.4399477611940297 4.958250746268657 0.368240298507462
C 0.7418477611940297 4.4992507462686575 2.475440298507462
H -0.18475223880597014 4.424250746268656 1.901240298507462
H 0.57844776119403 4.189650746268656 3.511940298507462
H 1.1210477611940297 5.524350746268658 2.4432402985074617
N 3.00114776119403 -2.025349253731343 -2.490159701492538
N 1.7831477611940298 3.586450746268657 1.862540298507462
C -3.55075223880597 -3.8435492537313434 0.6444402985074619
H -2.62515223880597 -2.2736492537313433 1.7424402985074618
H -4.67195223880597 -1.3478492537313436 1.5102402985074619
H -4.83415223880597 -1.6757492537313432 -0.1945597014925382
H -3.7169522388059697 0.17335074626865676 -0.900559701492538
H -3.9132522388059705 -4.043149253731343 -0.34225970149253815
H -4.35435223880597 -3.9354492537313432 1.3449402985074619
H -2.78115223880597 -4.545049253731343 0.8904402985074619
H -5.24235223880597 1.138950746268657 1.5249402985074618
H -5.92805223880597 0.6501507462686567 -0.006059701492538094
H -4.89895223880597 2.059650746268657 0.08004029850746197
C 2.0768391851886205 -2.7333220038922335 3.9529466224052228
O 2.095702935549352 -2.7643698407898594 5.173788827338484
O 3.0530435902513027 -2.5001140023007498 3.2309560049939416
O 1.0786118250016234 -2.9303082614111307 3.250531548447668
O -3.5986961077499133 8.188887006882101 -3.4915499035854514
H -3.41885034269355 7.5255106268523635 -4.1745979517562475
H -3.8881070697513826 8.966954004019936 -3.9913648566813906
O 7.298861549448809 0.2304161113856491 -9.868129507708273
H 7.169889425583827 0.9038867212243948 -9.183461058129076
H 7.967491245810955 0.6167698355145768 -10.453473059218304
O -1.1464222561483006 -4.192395599396222 -8.803416380327326
H -1.1695502179390451 -4.421409979722936 -7.862148688388961
H -1.1412789236016783 -3.2234220424204434 -8.80848947721411
O -1.5998135636546398 -5.272255979520141 -4.905926171268636
H -0.6604668366061737 -5.305375088822933 -4.6703455950694845
H -1.9600856008048246 -4.577562642268763 -4.334465612064242
O 6.795057229976107 -0.45987042495568553 2.2553775552912647
H 7.051449190128597 -0.20525583631706992 1.3562658097770859
H 6.26170204152764 -1.2589847286101485 2.129240657636611
O 7.680724655052264 2.8032996240745645 2.2300444257712613
H 7.961185604447678 3.5684759616708206 2.754271652407768
H 7.2489239121219375 3.1953240186341345 1.4562053360536247
O 0.9133200384520914 3.177377686207845 -5.235963683652526
H 1.221210989240753 2.43853674421376 -4.6898093265741005
H 1.1825830547391556 2.9326782269125795 -6.134062535105191
O -0.9665973319200982 4.21486689490394 7.452959466288915
H -1.4449654833900039 4.586600207455597 8.209230325768928
H -0.2717343749450074 4.865729426677638 7.272666981539923
O 0.5353127095070027 10.224859880297346 -1.1375758793609374
H 0.8326320475612023 10.771771860722335 -1.8801766158180389
H 1.3208870832225799 10.145889098765021 -0.5757943708315505
O -4.587372756048375 4.513050451660236 5.902820086010772
H -4.076637197541503 4.4761391520067955 6.7254707422036475
H -3.9155491480570808 4.45134251371768 5.207257641337085
O 2.3072232415425784 -8.099790946040752 5.037734182556656
H 3.1991985756348322 -8.477896404663275 5.057320464257535
H 2.4180500468583315 -7.2631692304223305 4.561558302781974
O -4.019794900985299 -2.5766866745273815 7.04538285347007
H -4.783219620782185 -2.9668109727466248 6.5937711994552615
H -4.387447929220582 -1.805841958900897 7.503194626494912
O 4.900402788855944 7.061013058240286 -7.147786038229658
H 4.678376181539659 7.4088502968977785 -6.271041606854839
H 4.304852549970659 7.536789526954202 -7.746049031470754
O -2.787130621697883 1.9996311739471286 9.652051399352915
H -1.9094328108536018 1.602470514735411 9.547757005861836
H -2.6811938455658124 2.896822706661418 9.301642071011722
O -8.550447097990444 4.036513315124552 -0.19164071749009493
H -9.009797093385291 4.009751352247746 -1.0444295166506712
H -9.262241268776453 3.9517591068833293 0.4603774777471712
O 2.7321884352131374 -2.831240363735205 7.767406420886054
H 1.9309461121199027 -2.9833708040622233 7.244114508364883
H 2.9445779848045586 -3.7045836499485274 8.129517077937827
O 3.8657893103610674 0.3280344421554623 6.709926320705936
H 4.773503360340207 0.6638468524681356 6.757387730824686
H 3.788773608831927 -0.24868950009314317 7.484794064553362
O 1.104673682588225 2.9030699119255745 -8.255205587473107
H 1.0063507714440567 2.8134578115972335 -9.21503350617462
H 1.9925427555486426 2.557931608980313 -8.077638683404604
O -2.1906489395954867 -7.471037529994732 -1.067355110621821
H -2.874419936705125 -7.007239351935388 -0.5610786738399716
H -1.494447762238547 -6.807091877919124 -1.1832949055013553
O 3.39434704094069 -1.7966378681241446 11.766055924556479
H 4.304286031732101 -1.5374094237373983 11.975290251468527
H 3.353008284867233 -1.7461025490079223 10.799257479652827
C 11.120172780318029 -17.37745827944412 -7.166986890043335
O 10.12860185826063 -17.19611053172053 -6.521449626807646
O 12.111743702375424 -17.558806027167712 -7.812524153279025
O -8.324427062575095 16.297007428385932 -7.949847028443105
H -7.674738473861016 15.658906596524758 -8.281056060585634
H -9.10907494314812 15.758629344307689 -7.766984548976957
O 6.411225160312293 14.02443660264175 7.076079993346512
H 6.156778932189425 13.561368099427753 7.888355830254884
H 6.998865023234963 14.730860028253458 7.383662957034763
O 2.070878984664958 -6.949812304852816 22.50160499404803
H 2.972385607673221 -6.825144303326695 22.834337702040074
H 2.1601845298582694 -6.852722718533687 21.54162578795755
O -4.424002916870924 -3.357790165827768 -17.94340384497227
H -4.665688768242643 -2.555401482149204 -17.456857129382385
H -5.219504561747462 -3.5702856493322255 -18.45427050740869
O -1.7613044212538194 9.865696359668638 -10.848232738921297
H -1.9860572633190037 10.452405593019506 -10.110516131825822
H -2.558013232889607 9.867445829394551 -11.399788677260798
O 4.00048656827368 -4.2089995394887465 24.096678088696994
H 4.783602844717374 -4.0883937280437435 24.654486741117033
H 3.2586328123079378 -4.135804060391497 24.715755927824873
O -1.858680860674352 -15.608258369514324 13.80417887013301
H -1.763173075577539 -14.676815716015723 14.053698815486857
H -2.690650829106656 -15.633539670405384 13.308045045694474
O -15.542757209339506 -2.606788275577384 3.0540581801620688
H -16.06216612647211 -2.6387813712457557 3.871467609721512
H -15.865051724829408 -1.8120904221135818 2.602900213053922
O -17.509905792605906 3.728536690471268 -8.784982532624648
H -18.38335283583784 3.3155570542534827 -8.710783882779666
H -16.964883435912736 3.0488069873004413 -9.20910528093217
O 12.687668729174412 13.26222519814567 -4.186785142450505
H 12.35916826010469 13.137814942440766 -3.2836921865503848
H 11.945650280884418 12.986744648965432 -4.745785172612097
O 15.908933777772521 -8.851998661073491 -11.408993991968769
H 15.94353979629507 -8.86019940081324 -12.377344408011298
H 14.96088333625972 -8.855867032376969 -11.208625979674292
O -3.7787332114383103 -17.345190014550454 11.919552151509583
H -4.664428941680957 -17.406488231410798 12.307821335117668
H -3.9425602991948514 -17.326269625570625 10.964688470925772
O -21.422354027553677 0.5370721832511993 10.594326761909429
H -21.088658093004792 1.2327551027687305 10.00811890145623
H -21.7434633159258 -0.1464940725327608 9.987212321976852
O 3.3464280676952542 -19.061382457342162 -6.443571174898363
H 4.047206971738763 -19.325890600730844 -7.0583164283397
H 3.782792163727515 -19.05861914045875 -5.578388717798272
O 10.983195408368182 -4.620556459922949 16.409114177967545
H 11.036534151966876 -5.579172086790612 16.540180631556687
H 11.450794363004396 -4.472197654362881 15.57346902197374
O 0.1409563528526969 -3.697829663327285 8.24566503711203
H -0.06618285989412623 -3.9498344653631046 9.15810916317867
H 0.002206465712200456 -2.7389352861290606 8.230433934193101
O 7.315025204896343 9.115863319555872 12.277477496384105
H 7.715521951979241 9.01686255700077 11.400683015625058
H 7.019137515987741 10.038380405791342 12.296833256662287
O 20.911967457763396 9.420437251165474 12.561794080688067
H 20.888302306022418 8.694513231425034 11.920356916924565
H 21.124262980100767 8.984591738482768 13.400800185892226
O -12.591857035333094 13.34683211308959 -12.279076258553708
H -12.772856723856036 14.169100171061567 -11.799407924708758
H -11.696884245676461 13.472025018989866 -12.628808136406537
O 5.040889791339164 -6.301836487596444 -2.535507538636365
H 5.158052450461914 -5.61119153872102 -3.205022155952634
H 5.854092633385376 -6.259053839705837 -2.010309740633143