194

C -5.0710522388059704 1.0783507462686561 0.47044029850746183
C -3.8153522388059704 0.1782507462686569 0.19534029850746193
C -4.11845223880597 -1.3219492537313435 0.5608402985074619
C -2.96945223880597 -2.3874492537313436 0.7034402985074619
C -2.52015223880597 0.7359507462686565 0.7384402985074618
C -2.20305223880597 0.7852507462686571 2.097440298507462
C -1.5755522388059702 1.205650746268656 -0.18965970149253808
C -0.9533522388059701 1.2695507462686564 2.508640298507462
H -2.91125223880597 0.4298507462686567 2.840840298507462
C -0.32655223880597006 1.6562507462686575 0.21554029850746192
H -1.7850522388059702 1.178550746268657 -1.2573597014925382
C 0.004447761194029898 1.6956507462686563 1.569740298507462
H -0.7158522388059702 1.2676507462686573 3.5705402985074617
H 0.3943477611940298 1.9193507462686572 -0.5551597014925382
C -1.76045223880597 -2.1592492537313435 -0.1734597014925381
C -0.5287522388059701 -1.936549253731343 0.464840298507462
C -1.8068522388059702 -2.121249253731343 -1.5681597014925381
C 0.6114477611940299 -1.614449253731343 -0.2582597014925381
H -0.4544522388059702 -1.954049253731343 1.5506402985074619
C -0.6479522388059701 -1.8270492537313432 -2.2998597014925384
H -2.74345223880597 -2.290549253731343 -2.092259701492538
C 0.5698477611940298 -1.5506492537313434 -1.6506597014925382
H 1.5072477611940298 -1.351949253731343 0.2991402985074618
H -0.7173522388059701 -1.7640492537313435 -3.3840597014925375
C 1.7791477611940298 -1.082849253731343 -2.4255597014925376
H 1.4739477611940297 -0.9102492537313429 -3.464259701492538
H 2.1252477611940295 -0.1337492537313434 -2.0010597014925384
C 1.3965477611940298 2.0964507462686566 1.997440298507462
H 1.51704776119403 1.8448507462686567 3.057640298507462
H 2.1256477611940294 1.5207507462686571 1.4165402985074618
C 3.94864776119403 -1.4275492537313434 -3.522959701492538
H 4.81734776119403 -2.087049253731343 -3.615159701492538
H 3.4305477611940303 -1.3641492537313429 -4.484459701492538
H 4.26984776119403 -0.441449253731343 -3.176459701492538
C 2.60904776119403 -3.4296492537313434 -2.8992597014925376
H 1.9825477611940296 -3.869549253731343 -2.119359701492538
H 2.06294776119403 -3.373349253731343 -3.845759701492538
H 3.5215477611940305 -4.019849253731343 -3.0234597014925377
C 3.7281477611940304 -2.060049253731343 -1.156659701492538
H 3.9048477611940298 -1.032549253731343 -0.8295597014925382
H 3.12924776119403 -2.623249253731343 -0.4404597014925382
H 4.68244776119403 -2.5769492537313434 -1.3005597014925383
C 3.1110477611940297 3.755250746268656 2.588740298507462
H 3.40124776119403 4.809350746268656 2.534540298507462
H 2.9823477611940303 3.461750746268656 3.634840298507462
H 3.86514776119403 3.1392507462686563 2.091540298507462
C 1.99744776119403 3.9574507462686572 0.40494029850746194
H 2.67914776119403 3.230350746268657 -0.04295970149253803
H 1.03214776119403 3.981150746268657 -0.10175970149253821
H 2.4399477611940297 4.958250746268657 0.368240298507462
C 0.7418477611940297 4.4992507462686575 2.475440298507462
H -0.18475223880597014 4.424250746268656 1.901240298507462
H 0.57844776119403 4.189650746268656 3.511940298507462
H 1.1210477611940297 5.524350746268658 2.4432402985074617
N 3.00114776119403 -2.025349253731343 -2.490159701492538
N 1.7831477611940298 3.586450746268657 1.862540298507462
C -3.55075223880597 -3.8435492537313434 0.6444402985074619
H -2.62515223880597 -2.2736492537313433 1.7424402985074618
H -4.67195223880597 -1.3478492537313436 1.5102402985074619
H -4.83415223880597 -1.6757492537313432 -0.1945597014925382
H -3.7169522388059697 0.17335074626865676 -0.900559701492538
H -3.9132522388059705 -4.043149253731343 -0.34225970149253815
H -4.35435223880597 -3.9354492537313432 1.3449402985074619
H -2.78115223880597 -4.545049253731343 0.8904402985074619
H -5.24235223880597 1.138950746268657 1.5249402985074618
H -5.92805223880597 0.6501507462686567 -0.006059701492538094
H -4.89895223880597 2.059650746268657 0.08004029850746197
C -0.46262847177993316 -1.5051493520994454 4.910762415618825
O -0.9462343175596004 -0.700893141227442 4.1290509395603365
O 0.7086552316244237 -1.4981884966605952 5.3065874991228075
O -1.0696822150855656 -2.4504750422677675 5.426992477361073
O -3.0600146985989016 8.854865891627256 -0.6096049832741626
H -3.739791705681605 8.357174923887673 -1.088326487044486
H -2.5766859406271885 9.32185913730535 -1.3076540965237688
O -0.5244089519269579 7.095319964191088 7.598049837965091
H -0.8889113989257837 7.0554376361021935 8.494997285109056
H -1.0802304078734553 7.749412638953217 7.148397498671676
O 6.022896895319595 0.012286715413730498 4.20359768630218
H 6.140021424540043 0.207053558386479 5.145571719082977
H 6.276460059074589 0.8361390306527188 3.760952197268443
O -1.5764829999148056 -6.61882169661979 5.028576887746592
H -2.1122246142182908 -6.427715001489782 4.24408564453225
H -0.6730151318718995 -6.401882518463729 4.753540256195486
O 6.167938143878875 -3.911874610320189 4.623171447869315
H 5.354802266184818 -4.163230566444209 4.159924661989805
H 6.7344297379953435 -3.5530198794181853 3.9236912836011415
O 0.8797754515229421 9.809484298352643 3.573174746904353
H 0.1367546234303294 9.727210814986773 2.9566372542444057
H 0.7269270861025072 10.659920951619098 4.01175976747534
O -9.918953958662799 -2.701655638884276 -4.255623807558279
H -9.125214566282587 -2.460459697750063 -4.756392867968636
H -9.85206302683822 -2.1767420399299247 -3.4438644459415317
O 0.30099183983999833 1.7077386977904063 5.596140092575415
H 1.1854541302559456 2.0712547871092717 5.7528240628419915
H 0.34902060316775985 0.810545855142569 5.959045294101514
O 3.183707494980135 2.200608762012273 -2.6895636225243997
H 3.1074152365426224 3.0549131509694454 -3.140463677094166
H 3.919103323521532 1.761587095233374 -3.1427908235644395
O 1.5476401807369662 -11.832198720878926 -4.4918602067789255
H 1.1067326313081693 -11.743645049093388 -3.633532683644549
H 1.946663900622613 -10.961840968091108 -4.640921930339195
O -5.36193005700503 -6.135539081064924 0.5108271708599665
H -5.585729688854956 -5.25585245250987 0.17166273105932506
H -4.684746578700694 -5.962334163500401 1.1819341202675155
O -5.598342455451211 -1.4808407215083488 -2.183191240438236
H -6.30340262811384 -1.62488599036269 -2.8321199501942655
H -5.043482254411375 -2.2714289436343247 -2.261052428701201
O -7.95803866038701 0.025228964134553222 -0.18352746152063015
H -8.907731526818905 0.16389617427444292 -0.3170273535819721
H -7.871163626294992 -0.09327677586484251 0.7742674342366536
O 3.239850663810519 0.9529340172381127 -8.092716638124354
H 3.439486701126153 0.4152939205308515 -7.311655862052787
H 3.3276169387563757 1.8650734252048242 -7.777659935741651
O -13.161671708726564 -0.8405407003374057 0.9052627497551256
H -13.784265147669537 -0.6979277587157862 0.17656094821543267
H -12.792103238575013 -1.718759810757268 0.7288760034752828
O 7.523177439106584 1.3934445566513831 -4.951113508148185
H 8.233676154926615 0.8994698584884147 -5.387173056023121
H 7.504383513151487 2.2405542332142274 -5.421234693079034
O -4.583403573029494 3.5413198222894575 -8.102043595269324
H -4.202080011684508 4.145212952115055 -7.44715979930807
H -5.537575404395175 3.696811489376289 -8.036161867948168
O -7.8366466485949395 6.986216065588528 -5.490689016261032
H -7.766712197887657 7.311571524861921 -4.580622889748637
H -7.016798424799457 7.2871660426076685 -5.910498432033912
O 1.2948790685264508 -10.232984046808824 -0.8521915936528877
H 1.6828855975529526 -9.624668975643347 -0.2053754957349777
H 1.5028769264287336 -9.828642471248802 -1.7078823822451805
O -1.4677869380448048 4.090035634612257 -6.301675557242805
H -1.2769739306297 3.8308462773822525 -5.387685059371027
H -2.0098216397835045 3.3628844389845014 -6.642866801427297
C 17.323702389326574 -0.697313802551923 8.509000469315497
O 16.63347971032987 -0.22795350897774913 9.366970064064972
O 18.013925068323278 -1.166674096126095 7.651030874566022
O -16.268508463959645 5.437723241752032 -8.561125108350398
H -15.778673760182915 4.701785559340834 -8.164356854223128
H -17.17494001256587 5.315019129283191 -8.241300949202664
O 7.576058945166274 3.398465859183271 -0.991940260285985
H 6.94979543554086 3.0755330461278163 -1.657128783686495
H 7.145008269753394 4.186095941850514 -0.6275282511484019
O 10.502409456765644 3.3851926703494106 -2.27336263503281
H 10.135479933654572 3.7544834938813825 -1.4560778807246435
H 10.216084430321654 2.4595409584964267 -2.261162968009104
O 3.347736864484996 -7.960132082828194 17.387913999674463
H 4.091008450146836 -8.370209803549745 17.855194397097208
H 3.4043668138317416 -8.325191825521337 16.49209795974115
O -4.099966715192894 -8.595520624075338 -3.67754396557227
H -4.355086801544521 -9.343635558047481 -4.238084012319865
H -4.938568612138663 -8.148752949937617 -3.487524366360698
O -11.13566332131256 10.60141120940364 -8.015251352691074
H -10.793837237708406 10.41932771902886 -7.127012709081834
H -11.88641546265998 9.995507498187315 -8.105881696928265
O 13.498489629761057 1.9634388627691859 11.894440313190245
H 13.858070268217592 1.1593667363759232 12.298342698556569
H 13.573795784864046 1.800830158445553 10.942153939990568
O 5.506754894993787 -7.955832344963375 8.511827871180644
H 5.549440370780556 -8.275249107229378 9.425675910539686
H 6.329385936397652 -7.45612438000361 8.399881170583617
O 11.760651131735749 -9.404910036716094 14.411072721193376
H 11.752481618496155 -10.346906659843409 14.638103507586262
H 12.695395355685823 -9.157243090297573 14.473332368989503
O -6.47880302963276 -8.36358323302575 2.7195204768702066
H -6.464294613915143 -7.930415381071585 1.8528472542500651
H -7.090293027496248 -7.822563550773415 3.2413821733267416
O 0.6259248365755381 -18.259091550328733 -10.538049724956197
H 0.29810629143634504 -17.3886802606867 -10.809870521118885
H 1.0773720253262011 -18.595876163078714 -11.326550520570235
O -5.353035917750336 16.741557683976463 11.23816522364785
H -5.235673677044228 16.080617957873013 11.936987189397886
H -6.314086016281229 16.849149422028425 11.176775726853077
O 10.870279140570647 -5.830070760620125 -2.4730624366457192
H 11.195956725142118 -6.668060682374067 -2.8345515220224673
H 10.422733823006954 -5.4099247388576135 -3.2228240343712558
O -1.2846347168448595 -13.069292171131805 6.288944845773493
H -0.6488056797053252 -12.369777198367688 6.075948143195652
H -2.135751814055216 -12.708254393349588 5.998749473394307
O 0.6047698936967508 15.415503451807501 -9.843073614796353
H 0.019529529074967633 16.14610654727474 -10.093433734246423
H 1.03275312104453 15.726143954947268 -9.03110392372528
O -0.13950741992746174 15.394160370090727 10.765690053577199
H -0.9082947776414549 15.759341763150474 11.228913439949348
H -0.466553840319321 14.564005782374814 10.387740395946599
O 7.6908863520227 -1.7736968161647608 15.711319853571897
H 6.873639713375383 -1.2683772830531268 15.585910691324862
H 7.409668263281479 -2.697446437227673 15.63029536066475
O -16.69206733564848 0.21951419769132485 8.007007747123765
H -16.30303065878477 0.32970449550693104 8.887618852676125
H -16.655506099839215 1.1080458957186003 7.62212251496115
O 17.681710336181272 11.46030942357766 9.40515633326821
H 17.81258832997961 10.8181874105721 8.691351298225017
H 16.80748381771465 11.24029632392487 9.76052118056026
O -12.877759328214527 -5.898045877759198 -13.288302662808718
H -12.677403945486713 -5.993364652766715 -12.345042672857346
H -13.71179535310248 -5.404928560068305 -13.301762398409455