194

C -5.0710522388059704 1.0783507462686561 0.47044029850746183
C -3.8153522388059704 0.1782507462686569 0.19534029850746193
C -4.11845223880597 -1.3219492537313435 0.5608402985074619
C -2.96945223880597 -2.3874492537313436 0.7034402985074619
C -2.52015223880597 0.7359507462686565 0.7384402985074618
C -2.20305223880597 0.7852507462686571 2.097440298507462
C -1.5755522388059702 1.205650746268656 -0.18965970149253808
C -0.9533522388059701 1.2695507462686564 2.508640298507462
H -2.91125223880597 0.4298507462686567 2.840840298507462
C -0.32655223880597006 1.6562507462686575 0.21554029850746192
H -1.7850522388059702 1.178550746268657 -1.2573597014925382
C 0.004447761194029898 1.6956507462686563 1.569740298507462
H -0.7158522388059702 1.2676507462686573 3.5705402985074617
H 0.3943477611940298 1.9193507462686572 -0.5551597014925382
C -1.76045223880597 -2.1592492537313435 -0.1734597014925381
C -0.5287522388059701 -1.936549253731343 0.464840298507462
C -1.8068522388059702 -2.121249253731343 -1.5681597014925381
C 0.6114477611940299 -1.614449253731343 -0.2582597014925381
H -0.4544522388059702 -1.954049253731343 1.5506402985074619
C -0.6479522388059701 -1.8270492537313432 -2.2998597014925384
H -2.74345223880597 -2.290549253731343 -2.092259701492538
C 0.5698477611940298 -1.5506492537313434 -1.6506597014925382
H 1.5072477611940298 -1.351949253731343 0.2991402985074618
H -0.7173522388059701 -1.7640492537313435 -3.3840597014925375
C 1.7791477611940298 -1.082849253731343 -2.4255597014925376
H 1.4739477611940297 -0.9102492537313429 -3.464259701492538
H 2.1252477611940295 -0.1337492537313434 -2.0010597014925384
C 1.3965477611940298 2.0964507462686566 1.997440298507462
H 1.51704776119403 1.8448507462686567 3.057640298507462
H 2.1256477611940294 1.5207507462686571 1.4165402985074618
C 3.94864776119403 -1.4275492537313434 -3.522959701492538
H 4.81734776119403 -2.087049253731343 -3.615159701492538
H 3.4305477611940303 -1.3641492537313429 -4.484459701492538
H 4.26984776119403 -0.441449253731343 -3.176459701492538
C 2.60904776119403 -3.4296492537313434 -2.8992597014925376
H 1.9825477611940296 -3.869549253731343 -2.119359701492538
H 2.06294776119403 -3.373349253731343 -3.845759701492538
H 3.5215477611940305 -4.019849253731343 -3.0234597014925377
C 3.7281477611940304 -2.060049253731343 -1.156659701492538
H 3.9048477611940298 -1.032549253731343 -0.8295597014925382
H 3.12924776119403 -2.623249253731343 -0.4404597014925382
H 4.68244776119403 -2.5769492537313434 -1.3005597014925383
C 3.1110477611940297 3.755250746268656 2.588740298507462
H 3.40124776119403 4.809350746268656 2.534540298507462
H 2.9823477611940303 3.461750746268656 3.634840298507462
H 3.86514776119403 3.1392507462686563 2.091540298507462
C 1.99744776119403 3.9574507462686572 0.40494029850746194
H 2.67914776119403 3.230350746268657 -0.04295970149253803
H 1.03214776119403 3.981150746268657 -0.10175970149253821
H 2.4399477611940297 4.958250746268657 0.368240298507462
C 0.7418477611940297 4.4992507462686575 2.475440298507462
H -0.18475223880597014 4.424250746268656 1.901240298507462
H 0.57844776119403 4.189650746268656 3.511940298507462
H 1.1210477611940297 5.524350746268658 2.4432402985074617
N 3.00114776119403 -2.025349253731343 -2.490159701492538
N 1.7831477611940298 3.586450746268657 1.862540298507462
C -3.55075223880597 -3.8435492537313434 0.6444402985074619
H -2.62515223880597 -2.2736492537313433 1.7424402985074618
H -4.67195223880597 -1.3478492537313436 1.5102402985074619
H -4.83415223880597 -1.6757492537313432 -0.1945597014925382
H -3.7169522388059697 0.17335074626865676 -0.900559701492538
H -3.9132522388059705 -4.043149253731343 -0.34225970149253815
H -4.35435223880597 -3.9354492537313432 1.3449402985074619
H -2.78115223880597 -4.545049253731343 0.8904402985074619
H -5.24235223880597 1.138950746268657 1.5249402985074618
H -5.92805223880597 0.6501507462686567 -0.006059701492538094
H -4.89895223880597 2.059650746268657 0.08004029850746197
C 3.878656027124171 -0.955799102909511 2.4965020880848394
O 3.6818605163360605 -1.7043862845032283 3.4413111995392227
O 3.41812188252755 -1.1076234089420107 1.3591854453426309
O 4.56880750530812 0.06944031416868679 2.5314800701545326
O -5.574332361551441 -4.942685745850048 -2.935643227194941
H -4.712282196739958 -5.341488640540715 -2.7438278956000994
H -5.704842276784641 -4.3090871294903925 -2.2141989121761365
O -3.912921124699169 -7.440421670860876 -2.0354864565940867
H -3.8631751557392398 -6.655476135655039 -1.469488928125401
H -2.988532008293636 -7.627678303173291 -2.2577512973269624
O -6.676278587759412 -3.791767367664834 1.6891070416391787
H -7.02026671412854 -2.885890734639916 1.6839059305563362
H -6.5151246053430745 -3.9755573251845258 2.6267704086138433
O 9.034983275679753 4.34641434602891 -0.5536223358924727
H 8.41810132795097 4.53035910700198 0.17066237634222936
H 9.382202725848476 3.4655937135113453 -0.34733222208212466
O 2.9175516859811497 -12.11955737576056 1.7254524021023516
H 2.0691303712925873 -11.68500657843105 1.8995622358924633
H 3.560949871532144 -11.39542869433143 1.7507184239774771
O 1.081715205788489 1.8914718233741756 9.526989627977558
H 1.267721840608358 2.6778680300159605 10.061732458581579
H 0.33488092252844703 1.4717855393549228 9.979829467935978
O 2.829656160239457 -1.6828883002706165 -9.984135973313311
H 2.2345758289332283 -2.3137119128994055 -9.551807017606626
H 3.667385703423354 -2.1642531040075332 -10.058021577460657
O 6.864854466057478 3.407264954312325 3.09565127896272
H 6.259703014082049 3.7371921015179344 2.414543978598968
H 7.393374854884268 2.738339359153137 2.6350357223047784
O -1.868983474028518 2.387008833946375 8.66186167924933
H -1.0759068029703156 2.036607235173647 8.22917764869036
H -2.3829016304531216 1.5962470245976514 8.884450613549014
O -3.0367509266573127 -3.084262176415329 5.3944244784058455
H -3.113687904304744 -3.195793357979941 6.353908117614603
H -3.4465849048452153 -3.8841334958013114 5.03220365204932
O 1.924807275101244 6.224498496336558 6.681467920509611
H 1.4170016206674667 5.667505947438841 7.29045074021597
H 2.717938825347131 5.701142874573601 6.491722877165487
O 2.3124114026200124 -0.875564752493034 7.968082037261907
H 2.1674437647666256 -0.661794502696404 7.0341366313750875
H 3.1297092452879385 -1.3961184498128385 7.964915197033122
O 3.2237453822466327 -8.164555850051144 2.7890425415334925
H 3.3313177651600103 -7.455506835393853 2.137394604263784
H 2.5871487704894296 -7.803936293867251 3.424385152962146
O -10.528480562937917 2.2668519014596304 0.5150705220308387
H -9.989218739810697 2.1162629341632044 -0.27580684263836597
H -9.877493056890588 2.3993163033748233 1.220499748456515
O 7.305334940621108 -1.0720079422561772 2.032574359539608
H 6.685920318596304 -1.8163654457597198 1.9975773610990926
H 8.122925079190477 -1.4637517377458442 2.3746929183894165
O 1.0985160562677643 -4.474138823248822 11.715301493391625
H 0.7330088913001331 -5.004211283311122 10.991150227190404
H 1.0380044477217631 -3.562710367219743 11.391884643070517
O 3.729262514256178 2.296599992328834 7.9424400779384765
H 3.579982038974495 3.2455694257918175 8.06948224004468
H 2.8981686151199852 1.8885820862377378 8.228388086198082
O 0.15837123759000543 -12.504526219023848 -2.4258457093339176
H 0.7961690065615299 -11.908835721566753 -2.0047350421284156
H -0.33173079819318374 -11.930766841417471 -3.0337619169068972
O -9.852334048567515 6.3789377032659695 3.237219855050555
H -9.063511942580506 6.0950509288885995 3.723157445014361
H -10.45790764213477 5.626362551337795 3.313856711551343
O -2.122617662862249 4.951010444491962 -5.3156368059228
H -3.088607422681539 4.879610417078951 -5.288559566224266
H -1.8856539292554637 5.258301126519281 -4.4277277058487465
C 13.314878841992103 -5.9000117594558255 -5.736188862071577
O 12.787711421706637 -5.66791358897449 -4.686882802073454
O 13.842046262277567 -6.132109929937162 -6.7854949220697005
O 10.728139952936736 0.7146336816648251 -18.816650871002803
H 11.537383961410988 0.21474490453846506 -19.00159059672889
H 11.003841823122421 1.640877905862915 -18.88751736672391
O -10.340477673481061 10.431379060296212 8.176761208936245
H -10.82230296335859 9.66045258688062 7.841374686366489
H -9.41676112390417 10.247290367322305 7.94911887223913
O 5.726870306224381 14.556764032772605 0.5932246959129883
H 5.837258231500266 14.91409760537309 -0.3006962070453545
H 6.141076861972243 15.221473371331738 1.1638001674395615
O 9.354000993250738 -11.037704696745111 10.377755951827584
H 9.347732598358496 -11.19120112464431 11.33450404341056
H 10.154687431815494 -10.512248249912389 10.23024766771982
O -5.768140487550368 -8.533439666872919 -7.800603881604282
H -5.690489824121208 -8.528479082674815 -8.766478161194241
H -5.308089518172179 -7.726489338642403 -7.524657840424401
O 7.425308602795424 4.6722745873017395 6.775379975869821
H 7.433084780744713 4.77874751199667 5.8122754102782075
H 8.095789502585014 3.992614019045164 6.941147340795763
O 7.923699227942365 9.374905464038712 3.181249686641058
H 8.057409989439263 9.000477891169304 4.064931066910578
H 8.366612828101983 10.23577782968119 3.222338093360809
O 2.187885232464726 -5.409650094345829 -20.19274644229832
H 2.8697349480376833 -6.078452717026928 -20.35630491553637
H 1.714822771711976 -5.3465845879066745 -21.036071168856317
O 7.059084164991916 7.870731629738971 -7.684182401585178
H 7.808352011428555 8.04029397384673 -7.093577912390521
H 7.4733066229513785 7.575563778918657 -8.508959728785763
O 17.157985533767686 5.092973231597012 -8.283607964039545
H 16.700170001176364 5.277403870760947 -9.117489031312154
H 17.590028848085655 4.239401656690983 -8.4376082412003
O -4.855513049366266 4.693380689268319 4.592295963496719
H -5.337849960723384 4.756432030475322 3.754236902800829
H -4.201655404310917 5.406630197207099 4.54026459096284
O 12.638387419075878 8.668160336123481 8.576518601152298
H 12.627778266529543 9.465162760441292 8.02548145320873
H 12.500136043971954 7.9456598537844885 7.9457717782496395
O 10.630182050377758 8.62823364440334 1.9153255345738431
H 9.681417791769833 8.787299427710735 1.7990852013458207
H 10.74177163058179 8.570097535168033 2.876122028475059
O -11.17036397783671 1.9798370249524702 14.881536617811118
H -12.105794745502386 1.7270015495199837 14.878241444487546
H -11.17949345910323 2.906982065966332 15.163104850740918
O -18.215297696170964 -5.1674643075485225 6.923508789146728
H -17.600521393710906 -5.74948661480918 7.394961319826668
H -17.741149619744217 -4.9350939405226235 6.1110129070346595
O 8.584244769084174 0.3665743702472023 -4.414682675516629
H 8.388622315858955 0.6591102774776652 -5.317523722254647
H 7.976334695676388 -0.3743718386609274 -4.271833095699216
O -9.495600656335174 -9.797806149977895 -4.929141335585079
H -9.729985752988032 -10.306098283360487 -5.720134439542633
H -8.527041084144246 -9.822517031547823 -4.913531346816347
O -17.275246674341354 -0.16091152065807623 -11.09735034320454
H -17.417893424789032 -0.1837974084353693 -12.055523343047138
H -18.163833899826315 -0.26738765214628657 -10.725816333417761
O 2.489331067615436 -3.418625652006118 9.497263516608076
H 3.160196197550051 -3.4730984014148016 8.800169510099863
H 2.5551948391555426 -4.271417003165532 9.952643379235106
O -5.217113326102149 1.1821539994896462 11.63752659634952
H -4.562769076307731 0.6676000194913652 11.14150728086986
H -5.930241103741275 0.5493130213955846 11.810509293473919