194

C -5.0710522388059704 1.0783507462686561 0.47044029850746183
C -3.8153522388059704 0.1782507462686569 0.19534029850746193
C -4.11845223880597 -1.3219492537313435 0.5608402985074619
C -2.96945223880597 -2.3874492537313436 0.7034402985074619
C -2.52015223880597 0.7359507462686565 0.7384402985074618
C -2.20305223880597 0.7852507462686571 2.097440298507462
C -1.5755522388059702 1.205650746268656 -0.18965970149253808
C -0.9533522388059701 1.2695507462686564 2.508640298507462
H -2.91125223880597 0.4298507462686567 2.840840298507462
C -0.32655223880597006 1.6562507462686575 0.21554029850746192
H -1.7850522388059702 1.178550746268657 -1.2573597014925382
C 0.004447761194029898 1.6956507462686563 1.569740298507462
H -0.7158522388059702 1.2676507462686573 3.5705402985074617
H 0.3943477611940298 1.9193507462686572 -0.5551597014925382
C -1.76045223880597 -2.1592492537313435 -0.1734597014925381
C -0.5287522388059701 -1.936549253731343 0.464840298507462
C -1.8068522388059702 -2.121249253731343 -1.5681597014925381
C 0.6114477611940299 -1.614449253731343 -0.2582597014925381
H -0.4544522388059702 -1.954049253731343 1.5506402985074619
C -0.6479522388059701 -1.8270492537313432 -2.2998597014925384
H -2.74345223880597 -2.290549253731343 -2.092259701492538
C 0.5698477611940298 -1.5506492537313434 -1.6506597014925382
H 1.5072477611940298 -1.351949253731343 0.2991402985074618
H -0.7173522388059701 -1.7640492537313435 -3.3840597014925375
C 1.7791477611940298 -1.082849253731343 -2.4255597014925376
H 1.4739477611940297 -0.9102492537313429 -3.464259701492538
H 2.1252477611940295 -0.1337492537313434 -2.0010597014925384
C 1.3965477611940298 2.0964507462686566 1.997440298507462
H 1.51704776119403 1.8448507462686567 3.057640298507462
H 2.1256477611940294 1.5207507462686571 1.4165402985074618
C 3.94864776119403 -1.4275492537313434 -3.522959701492538
H 4.81734776119403 -2.087049253731343 -3.615159701492538
H 3.4305477611940303 -1.3641492537313429 -4.484459701492538
H 4.26984776119403 -0.441449253731343 -3.176459701492538
C 2.60904776119403 -3.4296492537313434 -2.8992597014925376
H 1.9825477611940296 -3.869549253731343 -2.119359701492538
H 2.06294776119403 -3.373349253731343 -3.845759701492538
H 3.5215477611940305 -4.019849253731343 -3.0234597014925377
C 3.7281477611940304 -2.060049253731343 -1.156659701492538
H 3.9048477611940298 -1.032549253731343 -0.8295597014925382
H 3.12924776119403 -2.623249253731343 -0.4404597014925382
H 4.68244776119403 -2.5769492537313434 -1.3005597014925383
C 3.1110477611940297 3.755250746268656 2.588740298507462
H 3.40124776119403 4.809350746268656 2.534540298507462
H 2.9823477611940303 3.461750746268656 3.634840298507462
H 3.86514776119403 3.1392507462686563 2.091540298507462
C 1.99744776119403 3.9574507462686572 0.40494029850746194
H 2.67914776119403 3.230350746268657 -0.04295970149253803
H 1.03214776119403 3.981150746268657 -0.10175970149253821
H 2.4399477611940297 4.958250746268657 0.368240298507462
C 0.7418477611940297 4.4992507462686575 2.475440298507462
H -0.18475223880597014 4.424250746268656 1.901240298507462
H 0.57844776119403 4.189650746268656 3.511940298507462
H 1.1210477611940297 5.524350746268658 2.4432402985074617
N 3.00114776119403 -2.025349253731343 -2.490159701492538
N 1.7831477611940298 3.586450746268657 1.862540298507462
C -3.55075223880597 -3.8435492537313434 0.6444402985074619
H -2.62515223880597 -2.2736492537313433 1.7424402985074618
H -4.67195223880597 -1.3478492537313436 1.5102402985074619
H -4.83415223880597 -1.6757492537313432 -0.1945597014925382
H -3.7169522388059697 0.17335074626865676 -0.900559701492538
H -3.9132522388059705 -4.043149253731343 -0.34225970149253815
H -4.35435223880597 -3.9354492537313432 1.3449402985074619
H -2.78115223880597 -4.545049253731343 0.8904402985074619
H -5.24235223880597 1.138950746268657 1.5249402985074618
H -5.92805223880597 0.6501507462686567 -0.006059701492538094
H -4.89895223880597 2.059650746268657 0.08004029850746197
C -0.6890862869488118 3.728537091810552 -2.8180566746985884
O -1.6325146440765455 4.494705391962397 -2.939319073692244
O 0.46519093958555646 4.060447890903929 -2.524610308475862
O -0.7426360839330183 2.5026959099813753 -2.970024436327819
O 9.889087704081774 -3.21580804006149 1.347021843586437
H 9.036401960997122 -3.6351157317356186 1.1570864857851828
H 9.730523226759798 -2.2752057879450587 1.176473744373619
O -0.3618846257197603 5.523485643243396 -7.107230404069474
H -0.6933560141336312 6.358304031332816 -7.4707855367120555
H -0.863241867387202 5.41048587346655 -6.285747651628502
O 5.462683179898054 8.864459504828085 2.378659632362936
H 5.3431164005977365 8.889220275672736 3.339939012363844
H 4.882222933302403 9.568430434624457 2.052388615532224
O 7.594058551438719 -1.1570106461096676 1.4204761755905884
H 6.708055649264293 -0.7985717374474148 1.5801250496721437
H 8.176042422600968 -0.3862587347057156 1.4992048811188443
O -6.255214082132308 -6.298505737570443 -2.3211104548894235
H -5.38923464602899 -6.67602926693205 -2.536802267261932
H -6.101181144820045 -5.341836797323211 -2.32562014325939
O -3.6176939812426196 -5.718755549791361 7.180078692915272
H -3.92785454584899 -6.607927719272241 6.95173545547715
H -2.6572749770482442 -5.819313416311802 7.260361917583575
O 5.603571225163023 -1.8833584017360407 -6.964194292123559
H 5.892473185753978 -1.374646087961712 -6.191721123734473
H 6.4233480276325885 -2.0545406890423177 -7.451661791496969
O 1.892153556743486 2.8570175199850945 7.939011942606312
H 1.8248875259917225 3.8081729877014747 8.1114819812801
H 1.6661594870039753 2.4486078110463003 8.788182204913642
O -2.109681431045571 9.418162795564857 8.355075022546709
H -1.797995031070406 9.408020867910947 7.437624159407989
H -2.2313572929898666 8.48146510666424 8.571302607577742
O 5.941040982712556 -5.990399696165886 -0.9848155522143585
H 5.302477267339977 -5.89871013307753 -0.2617686918171669
H 5.503056954289923 -6.587759994636209 -1.6095495827890733
O 6.545515658746075 -5.428827017177901 -5.7693772161283015
H 7.267743782170809 -5.232350588343042 -6.384804634713702
H 6.161697741743065 -4.560766283505716 -5.574143219232321
O -1.041848816963776 -5.342671603421339 -6.890402213506665
H -0.5691437491593323 -5.1711593019013335 -7.718714235753902
H -0.5285971325026897 -4.861512144634165 -6.22405378519195
O -3.3657392340015537 2.573990916291576 -7.21780448993059
H -2.8265668826409693 2.915669493419185 -6.488752857767031
H -2.8999197946413715 1.7716003064574464 -7.497346085161388
O 1.4871046261978647 -6.2637411779068914 -8.883871027705899
H 1.5198573506693132 -5.807520725941206 -9.73812948692531
H 0.6440753530220924 -6.741016766059212 -8.90558742295434
O 4.593826843748135 5.132400767630601 -4.563881619856241
H 4.1249516910476505 4.566729905442432 -3.9321064036983184
H 4.906147626416962 5.875345772054658 -4.025875678054042
O 5.868401049813768 10.132943650801788 -2.022903912250449
H 5.111172743855839 9.884238725027256 -1.4717972896704161
H 6.633744901894887 9.789612597564446 -1.5377910179005128
O 6.175661338918848 -7.740877726691743 1.913378477293115
H 5.645742130436921 -7.39949226042976 1.177437614990323
H 6.0681856325326375 -7.0741144621445695 2.6082436914801406
O 5.403621289444002 0.8224346434537209 -7.017159660491261
H 5.039736750909846 0.8782847611704627 -7.91350566726923
H 4.830530010183614 1.4039248400113173 -6.495242539443195
O -5.018881294090386 6.776633731295217 4.124089068430254
H -5.310001431232062 6.284188126452668 4.906210381860511
H -4.952013140977912 6.100446653411607 3.4332478203113013
O -1.0358443672398803 9.953447232624159 3.8644231286875184
H -1.5428888836591423 9.432721849629464 3.2235500595278066
H -1.2292791742310676 9.53088093922171 4.71470699153827
C 7.397521981656187 16.129997978397082 7.0781236035985975
O 7.543499341626021 16.85482580951812 8.01947023630549
O 7.251544621686351 15.405170147276046 6.136776970891703
O 2.0714930462357968 -15.2501269886581 -1.3337621748934168
H 2.5809151527778873 -14.634429301849726 -1.8818249748762663
H 1.7337792905915776 -14.697486495893514 -0.6129987953397715
O 10.054551629567761 2.9382296624109667 -6.181362535552257
H 9.854588373642056 3.192092399758146 -7.094891825595105
H 9.75955036180738 2.0169772857684842 -6.124527204548162
O -9.113672960161528 -4.9622870031357875 -4.430312745586711
H -9.302838783479086 -5.278528949251659 -3.5341126118523762
H -8.64800603821593 -4.124279844988923 -4.289386293136049
O -17.141466626291873 -2.430701792285266 -3.2230713375103788
H -16.83920024899537 -2.638542473921909 -2.3261852549375317
H -16.43899749440523 -2.777858433650446 -3.7931426746274766
O 7.2626329557249925 6.7778186642430995 18.779564465708454
H 6.8818717993438705 7.567918055072504 18.367579937719455
H 7.286695805128318 6.994655352376892 19.723685630738537
O -13.146813767282328 2.3357603154562474 4.453294248880635
H -12.747363816101455 2.055809029712714 5.290572202138775
H -13.449426473551185 1.5082253982837148 4.05009026184071
O 4.036137961754115 4.670826301758275 -11.49439066802303
H 4.114319228561151 4.577191679296401 -10.533095914111998
H 3.3891597030817566 3.9938821430085083 -11.743644921827961
O 4.189283939828181 1.7312350454861383 -14.212652700044753
H 5.005169834217805 1.752074402388864 -14.735015873938094
H 3.497915464891987 1.5455958431061187 -14.865729772605189
O -3.449859233793914 2.549333996457851 -20.595392986251937
H -4.0004029387736555 2.600774660266704 -19.79963998191323
H -2.84159202531389 1.817595552279022 -20.412276092714873
O -7.460075247064893 -11.190090239225139 -14.23837101741063
H -7.707182610314504 -11.203426206798593 -13.301499916406494
H -7.378642766702594 -12.126894267037684 -14.4723131233177
O -6.4382051903537665 7.205675522775869 15.065203140704131
H -5.775057049044664 7.540149343662358 15.687560885670706
H -6.61198296469133 7.959033974390991 14.481067648864826
O -5.280455275401593 -4.183435009322702 -16.428624260435434
H -5.130962164347246 -4.324484796944297 -17.37557944631236
H -5.263001015794683 -5.07663315474325 -16.05331856351775
O -4.518791686884559 7.446234519135174 -0.3417279520718193
H -4.578514508748813 7.694417390092385 -1.2765037562152557
H -3.5762931566235907 7.2657660964113004 -0.20723031954443716
O -12.739841440039713 -3.258796298697419 -11.97274675737446
H -13.49048429472298 -2.7494303105994127 -12.313406340803272
H -12.798121422162408 -3.1473684968889466 -11.011940204020505
O 9.094489018554619 12.390737332487241 -2.3308845242398677
H 8.929073499247105 12.010695950558421 -1.4550000507538599
H 9.551282052588423 11.683413329997878 -2.810462280042424
O 0.781136799754861 -7.804250732157055 14.436962998717537
H 0.27452774542279856 -7.102138115314089 14.00181647599364
H 0.7122159319789345 -8.554602466569118 13.82771417192357
O -3.190301314729009 -16.14843253034292 15.995204150541873
H -2.90675627026593 -16.31895169249956 15.084439208310439
H -3.484882231509756 -15.225424482420232 15.979706691441613
O 6.279416788531488 10.91016893270318 11.503449488701133
H 6.7538629055802275 10.771580054769963 10.669986015098008
H 5.554311426648198 11.506554177614525 11.263639567888557
O 15.83529928863905 -10.68686475940078 -14.313187492780324
H 15.868969723176615 -10.654863866183216 -13.345298242105779
H 16.445371255779914 -9.98749689719341 -14.591860657115122
O -2.49812856960764 -8.270082853675637 -12.00184408301608
H -2.588138753345115 -8.579513435039512 -11.08799604365704
H -1.543732281679147 -8.145352720533117 -12.113790783613108