194

C -5.0710522388059704 1.0783507462686561 0.47044029850746183
C -3.8153522388059704 0.1782507462686569 0.19534029850746193
C -4.11845223880597 -1.3219492537313435 0.5608402985074619
C -2.96945223880597 -2.3874492537313436 0.7034402985074619
C -2.52015223880597 0.7359507462686565 0.7384402985074618
C -2.20305223880597 0.7852507462686571 2.097440298507462
C -1.5755522388059702 1.205650746268656 -0.18965970149253808
C -0.9533522388059701 1.2695507462686564 2.508640298507462
H -2.91125223880597 0.4298507462686567 2.840840298507462
C -0.32655223880597006 1.6562507462686575 0.21554029850746192
H -1.7850522388059702 1.178550746268657 -1.2573597014925382
C 0.004447761194029898 1.6956507462686563 1.569740298507462
H -0.7158522388059702 1.2676507462686573 3.5705402985074617
H 0.3943477611940298 1.9193507462686572 -0.5551597014925382
C -1.76045223880597 -2.1592492537313435 -0.1734597014925381
C -0.5287522388059701 -1.936549253731343 0.464840298507462
C -1.8068522388059702 -2.121249253731343 -1.5681597014925381
C 0.6114477611940299 -1.614449253731343 -0.2582597014925381
H -0.4544522388059702 -1.954049253731343 1.5506402985074619
C -0.6479522388059701 -1.8270492537313432 -2.2998597014925384
H -2.74345223880597 -2.290549253731343 -2.092259701492538
C 0.5698477611940298 -1.5506492537313434 -1.6506597014925382
H 1.5072477611940298 -1.351949253731343 0.2991402985074618
H -0.7173522388059701 -1.7640492537313435 -3.3840597014925375
C 1.7791477611940298 -1.082849253731343 -2.4255597014925376
H 1.4739477611940297 -0.9102492537313429 -3.464259701492538
H 2.1252477611940295 -0.1337492537313434 -2.0010597014925384
C 1.3965477611940298 2.0964507462686566 1.997440298507462
H 1.51704776119403 1.8448507462686567 3.057640298507462
H 2.1256477611940294 1.5207507462686571 1.4165402985074618
C 3.94864776119403 -1.4275492537313434 -3.522959701492538
H 4.81734776119403 -2.087049253731343 -3.615159701492538
H 3.4305477611940303 -1.3641492537313429 -4.484459701492538
H 4.26984776119403 -0.441449253731343 -3.176459701492538
C 2.60904776119403 -3.4296492537313434 -2.8992597014925376
H 1.9825477611940296 -3.869549253731343 -2.119359701492538
H 2.06294776119403 -3.373349253731343 -3.845759701492538
H 3.5215477611940305 -4.019849253731343 -3.0234597014925377
C 3.7281477611940304 -2.060049253731343 -1.156659701492538
H 3.9048477611940298 -1.032549253731343 -0.8295597014925382
H 3.12924776119403 -2.623249253731343 -0.4404597014925382
H 4.68244776119403 -2.5769492537313434 -1.3005597014925383
C 3.1110477611940297 3.755250746268656 2.588740298507462
H 3.40124776119403 4.809350746268656 2.534540298507462
H 2.9823477611940303 3.461750746268656 3.634840298507462
H 3.86514776119403 3.1392507462686563 2.091540298507462
C 1.99744776119403 3.9574507462686572 0.40494029850746194
H 2.67914776119403 3.230350746268657 -0.04295970149253803
H 1.03214776119403 3.981150746268657 -0.10175970149253821
H 2.4399477611940297 4.958250746268657 0.368240298507462
C 0.7418477611940297 4.4992507462686575 2.475440298507462
H -0.18475223880597014 4.424250746268656 1.901240298507462
H 0.57844776119403 4.189650746268656 3.511940298507462
H 1.1210477611940297 5.524350746268658 2.4432402985074617
N 3.00114776119403 -2.025349253731343 -2.490159701492538
N 1.7831477611940298 3.586450746268657 1.862540298507462
C -3.55075223880597 -3.8435492537313434 0.6444402985074619
H -2.62515223880597 -2.2736492537313433 1.7424402985074618
H -4.67195223880597 -1.3478492537313436 1.5102402985074619
H -4.83415223880597 -1.6757492537313432 -0.1945597014925382
H -3.7169522388059697 0.17335074626865676 -0.900559701492538
H -3.9132522388059705 -4.043149253731343 -0.34225970149253815
H -4.35435223880597 -3.9354492537313432 1.3449402985074619
H -2.78115223880597 -4.545049253731343 0.8904402985074619
H -5.24235223880597 1.138950746268657 1.5249402985074618
H -5.92805223880597 0.6501507462686567 -0.006059701492538094
H -4.89895223880597 2.059650746268657 0.08004029850746197
C 0.3270447606741069 3.192494969221243 -3.480102695854523
O -0.17629825571827729 3.7359489893520825 -4.451225259928
O 0.7615278254208808 3.777928780624372 -2.481542140347619
O 0.479830312544937 1.972978771252077 -3.3456214613630344
O -9.786534645983927 -2.0210256137552802 -4.562615467924709
H -10.541175016787468 -1.5094406746521374 -4.890892969036694
H -10.17114972645676 -2.8772238204232545 -4.3218711739706865
O 3.085262331284195 9.148108471556547 -6.644009774960592
H 2.5186272959831344 8.378359539549255 -6.803316634018817
H 3.6883371380880767 9.15577524309345 -7.402431783022504
O 5.124074451585058 -5.638749319158085 -3.9316661370999744
H 5.706046635082837 -5.270292476088376 -3.250112552023986
H 5.654835982813442 -6.339947995453074 -4.338574674280326
O -5.686382738576631 -4.624305349130696 6.645436243899275
H -5.382627663783846 -4.5498052887829 7.562578518819478
H -6.647720999538732 -4.717079921999545 6.724071928797187
O 7.33392323230331 -5.008051279294305 -8.284531201177582
H 7.418718819464884 -4.992775502719158 -7.3193660775080875
H 6.525068988282299 -4.5029176575985215 -8.456452056403748
O 3.473161685044242 -5.776431382989918 1.6666752944492798
H 3.7925239308272225 -4.874957602884822 1.8226244420951732
H 4.181086154622129 -6.3390567616925235 2.014895875277895
O 10.912114219333874 -3.770722832027256 -0.7771383863578647
H 10.685452691535714 -3.381425219059622 0.0807889283104033
H 11.710670632108808 -4.288675777090791 -0.595494926205725
O -1.133680563889771 2.6591744420464565 5.5528321136578525
H -1.1583842782895322 2.7011806599342973 6.5206092373044156
H -0.2544918109569434 2.3022309992665884 5.356413021732263
O 0.9000462965852143 0.5745807483357139 -5.486551294844178
H 0.6836868689537119 1.5144046930971529 -5.392280897433235
H 0.09317146966359324 0.18445567266262697 -5.854949697814753
O -8.616568274358084 3.717112334242752 4.393751459128133
H -9.425122790831209 3.194241059532912 4.502437156780688
H -8.613574022587642 3.950771541404328 3.453349229406746
O -4.531394351613322 4.462581431865256 3.571680791651101
H -3.9773233275176656 5.199300426526159 3.8703742466570947
H -4.789911846804549 4.0165077901694195 4.392137344531427
O -6.628551376029902 -4.430056370411326 -5.104774760975051
H -7.455830619358084 -4.789481391975011 -4.750670165788405
H -6.036007705418411 -4.4078330877058995 -4.3383805618685765
O 2.3295258106618872 2.1120230756274334 6.811991841019905
H 2.5168641605722883 2.771279447432689 6.126971596219051
H 2.9730353899357502 2.3094289405576403 7.509048718307499
O -0.0769747088094821 -5.177681910108145 -5.904807906719207
H 0.6526707686135818 -5.283232124512385 -5.275964534793186
H -0.8494915853482254 -5.512837000200527 -5.42538045094723
O 6.895364380677753 -6.506328462129204 -1.0271148023528682
H 6.668949463830547 -6.994199489971426 -1.8331455105279657
H 6.917470207529732 -5.580513239431161 -1.3123155213908118
O 6.056986101287766 4.7786817425899635 8.512528707058122
H 5.897021377271661 4.6475989621270415 9.459204970960712
H 6.490149256482874 3.9583484050926443 8.232555778595518
O 5.50224985536585 -2.4885027125460506 3.4550608671081138
H 4.951295648212289 -2.559313946736563 4.249039826295451
H 5.660133065025786 -3.4090302386660634 3.1968673155564824
O -2.44514952235508 4.308574025137917 -0.6629066046923078
H -3.064853135599004 4.746438331153588 -1.265575367902947
H -2.3219582923882003 4.9500686948610655 0.052824108548387816
O 7.546068259142109 0.40804803412411106 0.1332245480128218
H 7.880570405191772 0.28915351403733025 -0.7684071751876791
H 6.582822572141335 0.4049450146457829 0.027820268951077587
O 0.5642724708922928 2.3819087243079 -9.616332229994802
H 0.2891491738905545 2.044191947049548 -10.481908284830611
H 1.049065554708303 1.642466610410444 -9.21989437814533
C -1.5467710089072133 -13.455114295017374 -13.695524771034634
O -0.568557201035575 -12.859512222686341 -13.347423959739618
O -2.5249848167788533 -14.050716367348407 -14.043625582329653
O 1.8945924195128931 22.002074018876467 -7.410683048710808
H 2.6967392747610734 22.09353427436964 -7.946558781675625
H 1.9785181262440314 21.122949555190807 -7.011861538008243
O 0.865234522139886 16.75098997743379 -8.284877919896457
H 0.7106785156290956 16.796691202260973 -9.240383647666173
H -0.008675490924768603 16.911989651093542 -7.898455432912603
O 4.7917979737164265 6.571403799404456 -6.678010364939367
H 5.748938592489001 6.518939287292756 -6.819773081351464
H 4.642814643628767 6.03441056377535 -5.885290883316406
O -6.598447793691132 -6.906214589337915 10.064171016197008
H -7.23753853798997 -6.616355535278298 9.395955402617663
H -7.13621057881339 -7.043038828219381 10.858558993757129
O 8.79460509425959 -1.8456288836841752 -11.161059391609971
H 8.759647209433703 -1.734110354284534 -10.19912960166216
H 7.975272637809244 -1.4339149684183496 -11.474345079255492
O -1.2106689342036232 0.2797286713024722 13.039699539694796
H -1.4181238751516478 0.9573651810278947 12.378837553298698
H -0.24798237950702706 0.18476728485778016 12.983318010885279
O -5.56764996053702 7.375073380469066 -2.283321710346527
H -5.769892949722842 7.118272620143539 -3.195527005069933
H -5.331292401266373 6.540148495877292 -1.852047452402656
O 2.0741510996009254 1.2498567759618981 20.80929311803385
H 2.5619328435005784 1.4680818967805975 20.000952766534628
H 1.8143932102671247 2.1125458189394175 21.166021864219772
O 8.428476620829736 4.1492437774235125 11.146624126207447
H 8.38637970805178 4.171069349054984 12.114466495220876
H 8.211158020847641 5.055838582551724 10.882388568955284
O -3.2560927437508957 -11.683777639727024 6.935557049928914
H -2.799451871274173 -12.465134183896357 7.281863881174639
H -2.6608173215388593 -11.350639811451773 6.247350465114202
O -1.5308913326244598 -6.785436614329738 4.877121401392403
H -1.1429293165709993 -7.57824750910183 5.277001028443356
H -2.0845147277426443 -6.415258832867084 5.580990345720252
O -15.900253434480774 8.84824753827126 1.340142170593625
H -16.298835397991436 9.428638746967447 2.0059092620994727
H -16.154462917360547 7.957305974291962 1.6239777086929257
O -4.276875031590487 12.65491010042229 6.21889447284367
H -4.04531836602559 13.586221749015639 6.353086427620434
H -5.144194750312842 12.689092603243132 5.788139314643241
O -16.174095416905743 12.306120038051969 -5.044444323926625
H -16.614615670052096 12.093368020466466 -5.880892674084106
H -15.651604653616706 13.096034854064992 -5.249383168513854
O -0.9476234764669923 -7.865794186780216 -2.1150310576224673
H -0.2926096334075311 -8.078852023542652 -1.4334662547646702
H -0.45057847880739543 -7.3430715791363514 -2.7620776479539275
O 14.246069717832103 -4.620477291624667 12.235048236203472
H 14.481655177311163 -3.702290766002169 12.436046625120714
H 13.47566834429092 -4.792827811021302 12.796954782178485
O -16.468106988274286 0.0282452827386086 0.5555290962068753
H -15.850209991597588 0.7032422394666566 0.23686035471221434
H -17.303775462738834 0.5072093155690727 0.6614233847255218
O 6.742936020022154 -15.310242524874054 -17.466303152338895
H 7.482923030612138 -15.285233474385894 -18.091412045614128
H 5.971344493907649 -15.086006805790866 -18.00789968428453
O 14.080363623705738 -5.9256662150641475 7.441182138288426
H 13.393022563901315 -6.608275345540159 7.465148769209765
H 13.686967879219583 -5.180486161557821 7.919625886681583
O -17.281723341131467 10.185605625627833 11.237931655028062
H -17.10936482807237 9.307140944243796 10.867041235312334
H -16.59481872814122 10.293626319545158 11.912806107528922