194

C -5.0710522388059704 1.0783507462686561 0.47044029850746183
C -3.8153522388059704 0.1782507462686569 0.19534029850746193
C -4.11845223880597 -1.3219492537313435 0.5608402985074619
C -2.96945223880597 -2.3874492537313436 0.7034402985074619
C -2.52015223880597 0.7359507462686565 0.7384402985074618
C -2.20305223880597 0.7852507462686571 2.097440298507462
C -1.5755522388059702 1.205650746268656 -0.18965970149253808
C -0.9533522388059701 1.2695507462686564 2.508640298507462
H -2.91125223880597 0.4298507462686567 2.840840298507462
C -0.32655223880597006 1.6562507462686575 0.21554029850746192
H -1.7850522388059702 1.178550746268657 -1.2573597014925382
C 0.004447761194029898 1.6956507462686563 1.569740298507462
H -0.7158522388059702 1.2676507462686573 3.5705402985074617
H 0.3943477611940298 1.9193507462686572 -0.5551597014925382
C -1.76045223880597 -2.1592492537313435 -0.1734597014925381
C -0.5287522388059701 -1.936549253731343 0.464840298507462
C -1.8068522388059702 -2.121249253731343 -1.5681597014925381
C 0.6114477611940299 -1.614449253731343 -0.2582597014925381
H -0.4544522388059702 -1.954049253731343 1.5506402985074619
C -0.6479522388059701 -1.8270492537313432 -2.2998597014925384
H -2.74345223880597 -2.290549253731343 -2.092259701492538
C 0.5698477611940298 -1.5506492537313434 -1.6506597014925382
H 1.5072477611940298 -1.351949253731343 0.2991402985074618
H -0.7173522388059701 -1.7640492537313435 -3.3840597014925375
C 1.7791477611940298 -1.082849253731343 -2.4255597014925376
H 1.4739477611940297 -0.9102492537313429 -3.464259701492538
H 2.1252477611940295 -0.1337492537313434 -2.0010597014925384
C 1.3965477611940298 2.0964507462686566 1.997440298507462
H 1.51704776119403 1.8448507462686567 3.057640298507462
H 2.1256477611940294 1.5207507462686571 1.4165402985074618
C 3.94864776119403 -1.4275492537313434 -3.522959701492538
H 4.81734776119403 -2.087049253731343 -3.615159701492538
H 3.4305477611940303 -1.3641492537313429 -4.484459701492538
H 4.26984776119403 -0.441449253731343 -3.176459701492538
C 2.60904776119403 -3.4296492537313434 -2.8992597014925376
H 1.9825477611940296 -3.869549253731343 -2.119359701492538
H 2.06294776119403 -3.373349253731343 -3.845759701492538
H 3.5215477611940305 -4.019849253731343 -3.0234597014925377
C 3.7281477611940304 -2.060049253731343 -1.156659701492538
H 3.9048477611940298 -1.032549253731343 -0.8295597014925382
H 3.12924776119403 -2.623249253731343 -0.4404597014925382
H 4.68244776119403 -2.5769492537313434 -1.3005597014925383
C 3.1110477611940297 3.755250746268656 2.588740298507462
H 3.40124776119403 4.809350746268656 2.534540298507462
H 2.9823477611940303 3.461750746268656 3.634840298507462
H 3.86514776119403 3.1392507462686563 2.091540298507462
C 1.99744776119403 3.9574507462686572 0.40494029850746194
H 2.67914776119403 3.230350746268657 -0.04295970149253803
H 1.03214776119403 3.981150746268657 -0.10175970149253821
H 2.4399477611940297 4.958250746268657 0.368240298507462
C 0.7418477611940297 4.4992507462686575 2.475440298507462
H -0.18475223880597014 4.424250746268656 1.901240298507462
H 0.57844776119403 4.189650746268656 3.511940298507462
H 1.1210477611940297 5.524350746268658 2.4432402985074617
N 3.00114776119403 -2.025349253731343 -2.490159701492538
N 1.7831477611940298 3.586450746268657 1.862540298507462
C -3.55075223880597 -3.8435492537313434 0.6444402985074619
H -2.62515223880597 -2.2736492537313433 1.7424402985074618
H -4.67195223880597 -1.3478492537313436 1.5102402985074619
H -4.83415223880597 -1.6757492537313432 -0.1945597014925382
H -3.7169522388059697 0.17335074626865676 -0.900559701492538
H -3.9132522388059705 -4.043149253731343 -0.34225970149253815
H -4.35435223880597 -3.9354492537313432 1.3449402985074619
H -2.78115223880597 -4.545049253731343 0.8904402985074619
H -5.24235223880597 1.138950746268657 1.5249402985074618
H -5.92805223880597 0.6501507462686567 -0.006059701492538094
H -4.89895223880597 2.059650746268657 0.08004029850746197
C -0.46219223840442325 2.901130466381755 -3.637164765235628
O 0.1389777890098165 1.9179283632927568 -4.041743214019213
O -0.3785798425156526 4.0361602323662025 -4.120225694811836
O -1.2472200426530484 2.913234359017149 -2.6820557522221113
O 2.512660395797881 2.429245031292534 -7.83053283393328
H 2.3090349787779902 1.531015284035453 -8.131676267509302
H 1.6425664219306655 2.8360983880023407 -7.702592351387995
O -4.032156540040926 -4.098800421596608 -6.791341072068838
H -3.6543681059409447 -3.383237893052022 -6.25822427088624
H -3.3333749681035743 -4.769820621196568 -6.8112947872515095
O -8.364107919573188 -5.226314210569457 2.7658205471030213
H -8.08113035999505 -4.329804166018766 3.0006839067292503
H -7.5958194209309475 -5.602577565250046 2.310715487717214
O -2.107191107444579 -7.249814828544189 -0.12649929580204855
H -2.5198628304784396 -7.590480307056359 -0.9343460867583158
H -1.3424677434514265 -6.74880403739115 -0.44766639874256464
O -2.8406332043713873 0.7122962676760889 -3.7685738029908027
H -2.9114096011351442 1.254827421648657 -4.5683350208116815
H -2.0604181144069367 0.16033482978584665 -3.9284641678471615
O -2.7250096320407726 8.582198277401758 -5.149120965364712
H -2.4907663483200864 7.738820636900738 -5.56482710729033
H -3.4599067111690482 8.912383771398185 -5.687512799388096
O -8.244340305308194 -0.5600140163293457 6.622239957025862
H -8.14294419873118 -0.892952145269903 5.717895780968657
H -9.14997370421521 -0.8071506461560549 6.862476459835118
O 3.120574485045193 -3.135569899194919 3.7090045080217244
H 2.785315787242127 -3.28118643848253 2.8115833215472277
H 3.7839929702197206 -3.8319473677310256 3.826886988246639
O 1.5404975599267003 8.699824460154804 -1.6597489108285324
H 0.9244739934455852 7.9881571018691275 -1.889992029272004
H 1.0892976115823174 9.504758079676751 -1.955489369807895
O -3.1114334098482894 -10.620705822657808 -5.4698636285212965
H -2.597929284088182 -11.426434238916919 -5.3083625791131395
H -2.6118750090327545 -9.92883137420246 -5.010828666836208
O -3.6169650874503607 4.441335932151038 -9.998583075145886
H -4.098572590328363 4.343826612306538 -9.163410336956305
H -3.7455119275655773 3.5902427317519927 -10.44364264242975
O -7.535409427580157 4.217054739275852 -6.839086603340997
H -8.448359801830883 4.01870590773146 -7.096276634408362
H -7.10349540457404 4.45435187283462 -7.673414051909882
O 3.2833287424795943 -5.737226044 5.360921050108824
H 3.240673704614572 -6.488097423344288 4.749905439566556
H 2.626897920994754 -5.951162651420757 6.040841375522055
O -1.0083800414324466 -2.9366517493780253 5.69330463599365
H -1.0496151806698046 -2.9766881110251124 6.660601958401885
H -0.36228951082677496 -3.619451049911186 5.45811516821691
O -7.061340336767746 -6.35619355244505 7.42240982804802
H -6.451822204988148 -5.707970996555488 7.8061578208348426
H -7.7071909519944635 -6.515864454202777 8.12692677620693
O 0.3136214695212305 -0.09370275165582642 -7.189566481007871
H 0.16152233317180476 -0.9935197274551606 -7.515392538414429
H 0.0736076527928391 -0.14059728061226062 -6.251933175694209
O -8.514665174442197 -5.075504087637013 -2.0655217355829594
H -8.487091689275804 -5.07223651083665 -3.0341271158889094
H -9.055389913641564 -4.302474690456075 -1.8441526957154726
O -8.661982675590409 1.3131324891146319 1.2291124211320117
H -7.710330855757062 1.318870075284649 1.4115768034448863
H -8.931674386444374 0.40248591578257154 1.42133922434956
O 3.342150521310189 0.21495946971535762 7.531619600231867
H 4.106960961424889 0.3356830541549918 6.948989216753966
H 3.7330300808239723 -0.036365328703629185 8.38192011178879
O 10.068518809966058 0.03766902216658696 2.5850728232372497
H 10.214719223907077 0.45863358791605524 1.724618507049088
H 10.87425853323299 0.23925031392077045 3.08418245594778
C 4.13134698317374 -0.751594572385909 -6.882374423364459
O 4.53848040669199 0.3670060879662054 -7.008045404160039
O 3.7242135596554906 -1.870195232738023 -6.756703442568879
O -5.292542020714273 9.80323079015096 -17.797688890714277
H -4.677512221385796 9.829002642304559 -17.049329675848476
H -5.755266539094752 8.95851388640624 -17.691381238508598
O -14.139852882586304 -1.0180913575402295 5.857183788291841
H -14.849616695929226 -1.3813972808597672 6.407830219543198
H -14.46159859827791 -0.1377241776865068 5.611429302329736
O -1.7112410775016549 3.5442927278845593 7.533497274421314
H -0.8134204359429607 3.892778891751524 7.426526034901418
H -1.606348451983979 2.8171954548746685 8.165390490869779
O -14.26537219733843 -9.81109290953118 4.915195839631274
H -13.732528608777562 -10.42930143550737 4.3928326657379335
H -14.846893577777747 -9.39361816096806 4.262118767070836
O 11.112605168798641 -0.9380862043883145 -3.736428613730473
H 10.82865251422389 -0.7327354952203402 -2.8330077078930214
H 11.777913931835124 -0.2613280013881645 -3.932195129761365
O -10.670666990172922 6.778468837307325 9.295294742850558
H -10.807814744626684 6.726328845688861 8.337464240296836
H -10.476014311301187 7.714481407005039 9.453259132115798
O 5.264359978081948 8.069995477824168 7.188150329468929
H 4.303986312988221 7.981798201480876 7.093964233148567
H 5.597473654974843 7.1721379125799 7.04033620598768
O 1.1326027149842948 3.6100088247350275 -20.842119666482816
H 1.948854937558815 3.3157414321975 -21.273520139050156
H 1.1697176566689673 4.576238495347866 -20.90524374296038
O 10.718163472622848 7.051572617422028 -2.470383279034847
H 10.781656879124057 6.666729628648861 -3.3574186888258035
H 10.085163396947264 6.479035003606174 -2.0116093376860036
O 1.901869461750461 10.23997740297257 -8.237945546092377
H 1.7381435476388714 10.385145566456009 -9.181919796937796
H 2.307192433458942 11.068381304878958 -7.94058682634184
O 7.491522080153444 5.122270837783282 -12.34686261918169
H 7.592812570317875 4.355017428700314 -12.929983361183561
H 7.020709955062136 5.7702243088072445 -12.892256226180344
O -14.212944728802336 12.637220159116485 17.0750588169609
H -14.067009712395599 12.643223685279462 18.032991113921383
H -13.659345141553539 11.907631618646722 16.75853077252698
O 1.8802018478595999 13.51152439849963 -6.918953263080985
H 1.6286724973374787 14.001979463672006 -6.12198766045269
H 1.0329515833604956 13.255142075793055 -7.313157573318429
O 0.7063848220695914 -8.597726122515235 0.5772788078677943
H 0.48784965440668904 -8.371265152181737 1.4937531208248775
H 0.47002265114348973 -7.802295830192293 0.07689343786769687
O 8.015246597297748 -6.3893807162335055 13.41809055706169
H 7.647746535295502 -5.542834215706834 13.122675452887256
H 8.330055757305312 -6.207209889879136 14.316239167872116
O 3.9168212080685723 -5.925571605991576 8.920149713781067
H 4.121553745495423 -5.991993284756155 9.86494604400725
H 3.31645430522977 -6.6686815237455335 8.757948676757723
O 11.686325901572104 -6.634920967922103 -4.77678435996962
H 11.5164778713816 -7.141146920313483 -3.9681717897817412
H 12.38884135694043 -7.1327148508248746 -5.221346199777328
O 8.331288872653573 -1.357919045119071 10.663194630938676
H 8.839925480314694 -1.733894885721989 11.39729157653232
H 8.653638694820373 -0.4464565092347841 10.59770736402048
O -12.781666420369433 -8.169165670121899 13.354751985310203
H -12.362448918674662 -8.4476679989023 12.526705793339797
H -13.471467287619383 -8.833401217125866 13.502832523996261
O -2.205669506144093 -5.096797639298073 -3.3078795832107897
H -1.7637641073553878 -4.299530206873822 -3.636591640514808
H -1.7233633220345084 -5.8230157293506775 -3.7309043753329507