194

C -5.0710522388059704 1.0783507462686561 0.47044029850746183
C -3.8153522388059704 0.1782507462686569 0.19534029850746193
C -4.11845223880597 -1.3219492537313435 0.5608402985074619
C -2.96945223880597 -2.3874492537313436 0.7034402985074619
C -2.52015223880597 0.7359507462686565 0.7384402985074618
C -2.20305223880597 0.7852507462686571 2.097440298507462
C -1.5755522388059702 1.205650746268656 -0.18965970149253808
C -0.9533522388059701 1.2695507462686564 2.508640298507462
H -2.91125223880597 0.4298507462686567 2.840840298507462
C -0.32655223880597006 1.6562507462686575 0.21554029850746192
H -1.7850522388059702 1.178550746268657 -1.2573597014925382
C 0.004447761194029898 1.6956507462686563 1.569740298507462
H -0.7158522388059702 1.2676507462686573 3.5705402985074617
H 0.3943477611940298 1.9193507462686572 -0.5551597014925382
C -1.76045223880597 -2.1592492537313435 -0.1734597014925381
C -0.5287522388059701 -1.936549253731343 0.464840298507462
C -1.8068522388059702 -2.121249253731343 -1.5681597014925381
C 0.6114477611940299 -1.614449253731343 -0.2582597014925381
H -0.4544522388059702 -1.954049253731343 1.5506402985074619
C -0.6479522388059701 -1.8270492537313432 -2.2998597014925384
H -2.74345223880597 -2.290549253731343 -2.092259701492538
C 0.5698477611940298 -1.5506492537313434 -1.6506597014925382
H 1.5072477611940298 -1.351949253731343 0.2991402985074618
H -0.7173522388059701 -1.7640492537313435 -3.3840597014925375
C 1.7791477611940298 -1.082849253731343 -2.4255597014925376
H 1.4739477611940297 -0.9102492537313429 -3.464259701492538
H 2.1252477611940295 -0.1337492537313434 -2.0010597014925384
C 1.3965477611940298 2.0964507462686566 1.997440298507462
H 1.51704776119403 1.8448507462686567 3.057640298507462
H 2.1256477611940294 1.5207507462686571 1.4165402985074618
C 3.94864776119403 -1.4275492537313434 -3.522959701492538
H 4.81734776119403 -2.087049253731343 -3.615159701492538
H 3.4305477611940303 -1.3641492537313429 -4.484459701492538
H 4.26984776119403 -0.441449253731343 -3.176459701492538
C 2.60904776119403 -3.4296492537313434 -2.8992597014925376
H 1.9825477611940296 -3.869549253731343 -2.119359701492538
H 2.06294776119403 -3.373349253731343 -3.845759701492538
H 3.5215477611940305 -4.019849253731343 -3.0234597014925377
C 3.7281477611940304 -2.060049253731343 -1.156659701492538
H 3.9048477611940298 -1.032549253731343 -0.8295597014925382
H 3.12924776119403 -2.623249253731343 -0.4404597014925382
H 4.68244776119403 -2.5769492537313434 -1.3005597014925383
C 3.1110477611940297 3.755250746268656 2.588740298507462
H 3.40124776119403 4.809350746268656 2.534540298507462
H 2.9823477611940303 3.461750746268656 3.634840298507462
H 3.86514776119403 3.1392507462686563 2.091540298507462
C 1.99744776119403 3.9574507462686572 0.40494029850746194
H 2.67914776119403 3.230350746268657 -0.04295970149253803
H 1.03214776119403 3.981150746268657 -0.10175970149253821
H 2.4399477611940297 4.958250746268657 0.368240298507462
C 0.7418477611940297 4.4992507462686575 2.475440298507462
H -0.18475223880597014 4.424250746268656 1.901240298507462
H 0.57844776119403 4.189650746268656 3.511940298507462
H 1.1210477611940297 5.524350746268658 2.4432402985074617
N 3.00114776119403 -2.025349253731343 -2.490159701492538
N 1.7831477611940298 3.586450746268657 1.862540298507462
C -3.55075223880597 -3.8435492537313434 0.6444402985074619
H -2.62515223880597 -2.2736492537313433 1.7424402985074618
H -4.67195223880597 -1.3478492537313436 1.5102402985074619
H -4.83415223880597 -1.6757492537313432 -0.1945597014925382
H -3.7169522388059697 0.17335074626865676 -0.900559701492538
H -3.9132522388059705 -4.043149253731343 -0.34225970149253815
H -4.35435223880597 -3.9354492537313432 1.3449402985074619
H -2.78115223880597 -4.545049253731343 0.8904402985074619
H -5.24235223880597 1.138950746268657 1.5249402985074618
H -5.92805223880597 0.6501507462686567 -0.006059701492538094
H -4.89895223880597 2.059650746268657 0.08004029850746197
C 1.9879030253180408 -2.9837089684077207 3.048238758932109
O 1.9834798999215386 -2.4579871719457147 4.150678112042513
O 1.992198780192037 -2.378374960093675 1.9701924941695461
O 1.9887678851200263 -4.20243659704245 2.8400306812312333
O -6.192534359489976 0.03254387413199655 6.439515814052871
H -5.35844573242472 -0.21833145128280984 6.01486879569714
H -6.679187582517016 -0.8023364634704273 6.5109679427983185
O 6.736374668476414 -7.19443406800315 2.1260619896205704
H 5.957568478404996 -7.107161249376704 2.695984554830474
H 7.261309912442735 -7.8888235651636505 2.5517709984226022
O 5.259643514990776 7.337890741649451 3.944195022495106
H 5.9967320104652755 7.749061155228306 3.468162673030772
H 5.27358630282991 7.7670159909269865 4.812883150306098
O 6.180213597592986 -1.7126053233669642 5.841115279734373
H 5.260992219205047 -1.8981161150232388 5.597014561600153
H 6.227630321852366 -1.9571596263993372 6.777548294652609
O -5.719414606488678 3.9503999906358063 1.3440342095273046
H -5.1617033583213185 4.742476833486755 1.3208007081364066
H -6.0078575360705635 3.894241255967229 2.267402401092643
O -1.6422909460553181 8.425003675173729 -5.3536440865194805
H -1.8047210248552856 8.16178014939927 -4.4353319381298935
H -2.529219909465177 8.570445816515079 -5.715811922869918
O 3.9591249294197866 0.5963927838411056 9.236704151947642
H 3.8350102757269724 0.21830662832270198 10.120227648321126
H 3.197113855381142 1.1843789466743964 9.12457324782638
O -5.651239003373055 3.400857716954167 -8.612606419222516
H -5.3413739817771235 3.8293166856575103 -9.424624853390743
H -6.127052930734252 4.103172972675182 -8.14429420241557
O 5.605783233777874 8.050531505558828 -3.2050525160352734
H 5.496591551122142 7.711451571990787 -2.3039036204634575
H 5.99271293203043 7.306136521798952 -3.6899478254200098
O -3.257982339299536 3.647720441968666 2.6847529006162465
H -3.262026793541184 3.6950936586262113 3.6525890322177723
H -2.9133477639137797 4.510558942448575 2.409618977156669
O 7.553007867918385 -2.1816385644797616 -4.778791702698715
H 7.265754870193075 -2.9888890536325574 -4.326243672142404
H 6.947861386755108 -1.5004639694513913 -4.449002600811407
O -5.120389877733612 0.5176053953996269 -4.466593441460819
H -5.17572430080173 0.11524611507689886 -3.5868136576160783
H -6.045789071408102 0.6407600690382045 -4.726268628969328
O -9.28307765609732 -1.0335148180706328 0.7701868831694414
H -9.64178096422552 -0.7298857666839256 1.6175998242978473
H -9.0949828362903 -1.9724302113844798 0.9185788211582235
O -2.749923805121152 -6.460665512598423 -0.30922216985064777
H -2.5915630123038595 -6.342796650376252 -1.2579034374620257
H -2.7152541528044485 -7.420871240341392 -0.1836637375657891
O 9.52867368257051 1.8989648931469705 3.4650476190563237
H 8.629948531519842 2.1301004834442763 3.7440400896838826
H 9.561946179271738 0.9349980219669485 3.5579064179429443
O 2.7435025794643124 7.599167622692348 5.6891226495838625
H 3.0960908388949893 7.564998519040085 6.591054658422249
H 3.356830662649229 8.184645159799958 5.220073973837812
O 2.750292299026405 -8.840101502458587 1.3418851836588876
H 2.234448728013643 -8.454078911295433 2.0656664532814766
H 3.5412697071296813 -9.189936558835814 1.778842981964131
O 5.994149639893605 4.855095491708351 -2.149312140569876
H 6.030762688231043 4.510806668093094 -1.2442750984964235
H 5.656227357182416 4.1106295628657765 -2.6694476574689077
O -0.34388349244947114 -6.85843601043971 4.784886391995359
H -0.30260680959928166 -7.79879739785988 5.0150690442567765
H 0.5650124211788681 -6.5466946808090665 4.910136166006431
O 7.8449937733290565 0.47051241465766225 -7.627609209142302
H 8.242695292398087 1.1648004591654106 -7.081015237456013
H 6.970444598374156 0.3342845325993804 -7.23318855928277
C -2.541582156022658 3.737244647150194 -4.7511432930963515
O -3.0453391278863107 3.910583548156307 -3.679228746130617
O -2.0378251841590047 3.563905746144081 -5.823057840062086
O -0.07776129258541076 0.841235638374466 -19.28512900135098
H 0.4147039766308733 0.32007574741404576 -19.936924738963505
H -0.7195672731340199 1.3352624663089716 -19.8170918956519
O 2.9333924587792577 -8.99741690050661 -1.7149643197161453
H 2.71903132194866 -8.522746110935719 -0.8978325669095111
H 2.271577150919671 -8.68272477250748 -2.348944845566979
O 3.614251666672215 5.693928074515038 -12.583947159861422
H 3.4922861007651327 6.228884654571736 -13.382641854401836
H 4.468393029040075 5.257806999222184 -12.722521634703584
O 4.240236789446445 -18.196958435259205 -9.992935862807528
H 4.346223856737292 -18.370545724700076 -10.940354224151477
H 4.751405576712089 -18.901564984993644 -9.567262249229357
O 13.516150443743758 12.064298811112401 -5.572145265657429
H 13.10502559783082 11.958991157147446 -4.701022991812096
H 14.394719535343565 11.669685921469966 -5.465566830157856
O 9.500787151116025 -3.4380199115678405 12.396440110511412
H 8.812955200552468 -3.7960623016043447 11.815354736731546
H 9.25076142871952 -3.7542999372483594 13.277584836306008
O 4.118432404198721 8.634120775970187 12.355774538300587
H 3.819655664933672 7.836759710439951 11.893264918778318
H 5.084422932772832 8.594397684177439 12.290610752471862
O 3.9727613607339847 -11.691636321897828 12.08394522098569
H 4.004064944808247 -11.703496666651084 13.052370114690124
H 4.345946587640935 -10.828999583812775 11.848249254061376
O 9.371896063269032 7.874690545378846 -8.266867875871402
H 9.567509353624471 7.886214430241077 -7.317884210251174
H 8.93437602685497 8.724523385700875 -8.42599771451402
O -3.143622959557387 8.617057438752832 10.545745142095107
H -3.462996236975152 8.671206373987422 9.63248944986845
H -2.206186540075935 8.853465997468877 10.480278378805652
O -12.872908180514681 -16.145036337654194 -7.376554849556015
H -12.88054385572839 -15.177726644811397 -7.433308805333656
H -13.805165066173652 -16.39233623876581 -7.469838301205387
O 11.245537906267497 -11.013260291649244 5.122008697479994
H 10.464232839328904 -11.413548264724799 4.711765735459747
H 10.878632536674306 -10.418252731005932 5.793058916793706
O -4.81295124398309 10.329595767158619 11.353423408534164
H -5.373903500443786 10.177635634310677 12.128799472709794
H -5.095157249305457 9.649534770486902 10.723472017023784
O -0.7219596565419033 -1.0176907819885357 -8.187428852203393
H -1.596125128700828 -1.4216780719409994 -8.079742484718784
H -0.6115853512017411 -0.9511124999258667 -9.14781772624258
O -11.98900583774846 4.9567639930402745 13.597812614156387
H -12.209532709215962 4.978282929249998 14.541142986425385
H -12.775575048624374 4.572584587325613 13.18226838663449
O -9.076251641523177 9.225713754975775 10.155475042276931
H -9.271654001330411 9.951018671749468 9.543332859131812
H -8.10915144247594 9.16576464234901 10.146241776437858
O 2.8528030768149577 14.814560611665865 4.113233112549204
H 3.6752682266801973 15.105266343947642 3.6913224450191393
H 2.816795976363795 13.86450442338608 3.925993501012577
O -6.351316511865521 11.93792197748877 4.557310856430517
H -6.906844443454373 11.420305281661047 5.159331645378046
H -5.70273422987578 11.297498437819286 4.228432979968464
O -4.915529644662029 -13.94219911783801 9.413862308017732
H -4.775724996254064 -12.98410423395728 9.375440820994207
H -5.652553295180919 -14.04649719424513 10.034249279297418
O 14.11226696283138 -4.663207367520021 11.661243059836975
H 15.076107766669958 -4.736260824048209 11.729371278990946
H 13.783971336591362 -5.429806525586282 12.154710036385328