194

C -5.0710522388059704 1.0783507462686561 0.47044029850746183
C -3.8153522388059704 0.1782507462686569 0.19534029850746193
C -4.11845223880597 -1.3219492537313435 0.5608402985074619
C -2.96945223880597 -2.3874492537313436 0.7034402985074619
C -2.52015223880597 0.7359507462686565 0.7384402985074618
C -2.20305223880597 0.7852507462686571 2.097440298507462
C -1.5755522388059702 1.205650746268656 -0.18965970149253808
C -0.9533522388059701 1.2695507462686564 2.508640298507462
H -2.91125223880597 0.4298507462686567 2.840840298507462
C -0.32655223880597006 1.6562507462686575 0.21554029850746192
H -1.7850522388059702 1.178550746268657 -1.2573597014925382
C 0.004447761194029898 1.6956507462686563 1.569740298507462
H -0.7158522388059702 1.2676507462686573 3.5705402985074617
H 0.3943477611940298 1.9193507462686572 -0.5551597014925382
C -1.76045223880597 -2.1592492537313435 -0.1734597014925381
C -0.5287522388059701 -1.936549253731343 0.464840298507462
C -1.8068522388059702 -2.121249253731343 -1.5681597014925381
C 0.6114477611940299 -1.614449253731343 -0.2582597014925381
H -0.4544522388059702 -1.954049253731343 1.5506402985074619
C -0.6479522388059701 -1.8270492537313432 -2.2998597014925384
H -2.74345223880597 -2.290549253731343 -2.092259701492538
C 0.5698477611940298 -1.5506492537313434 -1.6506597014925382
H 1.5072477611940298 -1.351949253731343 0.2991402985074618
H -0.7173522388059701 -1.7640492537313435 -3.3840597014925375
C 1.7791477611940298 -1.082849253731343 -2.4255597014925376
H 1.4739477611940297 -0.9102492537313429 -3.464259701492538
H 2.1252477611940295 -0.1337492537313434 -2.0010597014925384
C 1.3965477611940298 2.0964507462686566 1.997440298507462
H 1.51704776119403 1.8448507462686567 3.057640298507462
H 2.1256477611940294 1.5207507462686571 1.4165402985074618
C 3.94864776119403 -1.4275492537313434 -3.522959701492538
H 4.81734776119403 -2.087049253731343 -3.615159701492538
H 3.4305477611940303 -1.3641492537313429 -4.484459701492538
H 4.26984776119403 -0.441449253731343 -3.176459701492538
C 2.60904776119403 -3.4296492537313434 -2.8992597014925376
H 1.9825477611940296 -3.869549253731343 -2.119359701492538
H 2.06294776119403 -3.373349253731343 -3.845759701492538
H 3.5215477611940305 -4.019849253731343 -3.0234597014925377
C 3.7281477611940304 -2.060049253731343 -1.156659701492538
H 3.9048477611940298 -1.032549253731343 -0.8295597014925382
H 3.12924776119403 -2.623249253731343 -0.4404597014925382
H 4.68244776119403 -2.5769492537313434 -1.3005597014925383
C 3.1110477611940297 3.755250746268656 2.588740298507462
H 3.40124776119403 4.809350746268656 2.534540298507462
H 2.9823477611940303 3.461750746268656 3.634840298507462
H 3.86514776119403 3.1392507462686563 2.091540298507462
C 1.99744776119403 3.9574507462686572 0.40494029850746194
H 2.67914776119403 3.230350746268657 -0.04295970149253803
H 1.03214776119403 3.981150746268657 -0.10175970149253821
H 2.4399477611940297 4.958250746268657 0.368240298507462
C 0.7418477611940297 4.4992507462686575 2.475440298507462
H -0.18475223880597014 4.424250746268656 1.901240298507462
H 0.57844776119403 4.189650746268656 3.511940298507462
H 1.1210477611940297 5.524350746268658 2.4432402985074617
N 3.00114776119403 -2.025349253731343 -2.490159701492538
N 1.7831477611940298 3.586450746268657 1.862540298507462
C -3.55075223880597 -3.8435492537313434 0.6444402985074619
H -2.62515223880597 -2.2736492537313433 1.7424402985074618
H -4.67195223880597 -1.3478492537313436 1.5102402985074619
H -4.83415223880597 -1.6757492537313432 -0.1945597014925382
H -3.7169522388059697 0.17335074626865676 -0.900559701492538
H -3.9132522388059705 -4.043149253731343 -0.34225970149253815
H -4.35435223880597 -3.9354492537313432 1.3449402985074619
H -2.78115223880597 -4.545049253731343 0.8904402985074619
H -5.24235223880597 1.138950746268657 1.5249402985074618
H -5.92805223880597 0.6501507462686567 -0.006059701492538094
H -4.89895223880597 2.059650746268657 0.08004029850746197
C 2.942821070357159 -1.1271213145140477 2.052226563494225
O 3.3635702809516927 -2.2172365946906423 1.696706836461279
O 1.795995658181728 -0.9032253891491038 2.4563225331519636
O 3.5987540646755733 -0.07913000191046904 2.062927034133766
O -1.4210401921266809 -2.458594253242615 -8.296498290660185
H -1.1510786030577558 -1.9044094644260072 -9.044139459384644
H -0.5906932013795547 -2.6498428576411084 -7.835076801593173
O 3.6427952753270274 -7.976248336301405 1.818234457658101
H 3.6528111471452096 -7.963819207979501 0.8493626622275189
H 4.441197595465551 -8.472058529067732 2.054217364340852
O 4.285249998662129 9.766862614777269 4.790594110303733
H 4.61043446917359 9.763709307473361 3.8777893810810857
H 5.055843055104633 9.501027703984708 5.314502581190118
O -5.933571371646894 5.908056911020157 1.3199112837726845
H -6.220349544282026 5.5426647081097 0.46949128480023616
H -5.1465071436834355 5.389194101924499 1.5441282115405195
O 7.43060156932387 3.232825640905452 2.89632010951431
H 6.479063245705688 3.0772290852908046 2.7997184145666822
H 7.505361662720523 3.712679232060946 3.734838686404827
O -4.040469995162809 6.897225668783278 6.197667715254713
H -3.9325018586712623 6.0932884454399545 6.727757499466381
H -4.1967771744722615 7.591786873931358 6.855022065890325
O -0.43386395043087045 -4.233425699525271 -4.985993087549687
H -0.2340236217069347 -4.508046342869211 -5.893525292027783
H 0.2836013212261129 -4.619330324684316 -4.461318761374843
O -1.7527805626636888 4.021651305117021 -4.416075848062776
H -1.1067515800881293 4.239123813521876 -3.727367187843893
H -2.4787804034277086 3.6008451318855297 -3.931505584756323
O -7.612439524902607 -1.7623286320504699 -0.20420681265195362
H -7.016372686883699 -1.965078135961906 0.5323828425685151
H -7.081520969124927 -1.948801527770365 -0.9930764410398001
O 5.945701449095484 -4.1208347369525855 -8.638649595408989
H 6.738225910338478 -3.8291205639188837 -9.113807649621233
H 6.269657594525878 -4.818443017368739 -8.049279552708567
O -6.460463604133855 5.071436015389722 3.852416329800594
H -5.639335952606716 5.054453588627858 4.366642285951004
H -6.5981073279436755 4.14591035681789 3.600586218572922
O 5.877532088775181 5.4413191392644285 -2.271962599472931
H 5.913437869933513 5.456840953559282 -1.3037491906314675
H 6.806326931600756 5.372796731608899 -2.5395570013009676
O -1.8773986642299434 -5.663920366312409 -10.465291451090293
H -1.354718112643345 -6.113608403579633 -9.78444413558418
H -2.042469176554254 -6.352677149745112 -11.126599067511295
O -5.402050522180091 2.9159647099829535 -6.651384175437391
H -5.380517650310577 3.4445374784596243 -7.463242858185787
H -6.347009825813516 2.8201655504060765 -6.459456116516876
O -1.9322144544015254 9.004986531632817 -3.5035300794043667
H -2.5707474854538064 8.719395226765727 -2.8329478460134876
H -2.1350166906866006 9.943329802479962 -3.6352308892486955
O 9.53124223398015 4.467833198012271 -0.665672198040177
H 9.614649938097052 3.6524818669596453 -0.1487459762786374
H 9.564472218557965 4.166003071171763 -1.5858658118826114
O 4.574664589765053 5.712555646353719 -6.522677622094557
H 4.594637735834851 5.55821998721026 -7.479102702617245
H 3.6442621846641234 5.90937331800284 -6.336731089432546
O 5.196674586367161 8.434320360476182 -3.620227172923509
H 5.150706784536341 8.4987237344578 -2.654459849229739
H 5.952968656405627 7.850008933488621 -3.7801064405488387
O -4.22307799440709 -8.628785605727742 1.6649212314254975
H -5.013071609095319 -8.521886519867374 1.114058243837798
H -3.488278434532405 -8.549877035620803 1.038179666925708
O 3.698233909856642 7.462320345798386 0.14870268316678725
H 4.130883972521477 8.019553187341574 0.812986387981093
H 3.56180111041781 8.057850537925397 -0.6034221906423771
C -19.82212228713591 -5.954048280397167 -5.256688797002285
O -19.244919469350847 -4.920831979147564 -5.077470384797865
O -20.399325104920976 -6.987264581646768 -5.435907209206707
O -8.943936227939744 -4.961571263693069 -13.976258684968352
H -9.231421912940464 -4.6389003777029 -13.108962405053589
H -8.504863443633205 -5.802635498553051 -13.779312024116493
O -7.761211177515912 2.6043911775568063 8.118489543561093
H -7.528274093246591 3.38515890402767 7.5939807934209
H -8.589339034302627 2.294614231806907 7.721999391103677
O 0.4614032246984273 3.453835601392526 16.822222748082446
H 0.20172198284795095 4.378538626816422 16.950508851394115
H 1.2586519750192566 3.508486699980166 16.2741628682928
O -6.38134152496447 9.413306761155713 9.470598061656688
H -6.063135965218523 8.50036351807747 9.535768711220351
H -5.5779477302335945 9.947994656172837 9.557943409615708
O -6.9631819048749195 -8.307246387558443 -5.494526370185525
H -7.023013589429969 -8.621127439073094 -4.579722450253301
H -6.386184604635982 -8.95465256750665 -5.926847197791419
O -11.550400124304836 -6.939388497322636 3.1706827448247745
H -11.702687394008588 -6.58278247623964 4.05871883086719
H -11.564449101541308 -7.899812663755864 3.298549828429766
O 1.1927978449846484 -4.672319361543159 11.80210757596823
H 1.356920960499318 -4.219213994935637 10.961437315637092
H 1.6363541799064685 -5.527476181394483 11.69757750607209
O 19.527250469574255 2.815138586543653 16.05194594601257
H 20.471380023705002 2.8221631200969455 15.833915219175184
H 19.190543802404047 3.635148943675632 15.660571983184928
O -14.032764496091415 0.33904524718951023 -13.564297760453318
H -14.201880585319019 0.2239068142227838 -12.617138720735948
H -14.39367661082907 -0.4655287247887969 -13.966000527870527
O 10.835807165220453 -4.740625892689628 16.354180934561114
H 10.814897070288675 -4.433157696022034 17.27287208661817
H 10.204862678483558 -5.475909117141084 16.33902907670207
O -16.291736938662503 -10.369442744573318 -6.214250518371456
H -16.322579785211083 -11.078587846487443 -6.873893831191339
H -16.847207190896164 -10.697872716332565 -5.4913753584484635
O 6.9715173316569965 2.411121620656141 -12.794637552823517
H 6.861316654477198 3.3389158244601616 -12.537691871721888
H 6.503628556295853 2.3453874071496963 -13.640640538258992
O -9.314211702131809 -10.357563447799947 4.958324106252754
H -10.065844835475074 -10.748428818704339 4.487963338768519
H -8.684043235936171 -11.088975607530353 5.041305436147726
O 7.558237658849325 -0.11517793773288432 11.50150377204314
H 7.844664780816945 0.6949085721216353 11.94948447168663
H 6.597003400488211 -0.015762272429263646 11.43003930293298
O -2.1602692857528245 13.739290903833488 17.8672105700969
H -2.99587019841667 13.857089346297546 17.39091024613271
H -1.5779502202111049 13.317670470892258 17.217516287581603
O -4.220883434327513 3.2188618951683923 13.164329681009091
H -4.407251992065425 3.207654478600075 12.213483472939378
H -4.783852509417281 2.515679841625535 13.521488979317033
O 13.993480907491403 -1.902441858687457 -0.9192235215831825
H 14.326521715194175 -1.0223741872446785 -0.6878535343636383
H 14.056233179484293 -2.401622304554359 -0.09106714798949245
O -13.968065992469429 -11.548123689851622 15.02783450214583
H -13.922151322787368 -11.524680364734426 15.995465428953898
H -13.640251249701464 -12.430881140221018 14.799276582700235
O 5.727254393415195 13.537088220946622 8.88975840099488
H 5.4785692006813855 13.636203992373188 7.95846945782554
H 5.5252485780378136 14.401088970550031 9.279191706630723
O -3.6632660635661365 1.1612159022159698 7.416401476408657
H -3.0391027001333955 0.8587819659521454 8.093100203202418
H -3.5113024548041976 0.5595533588481576 6.672176248523831