194

C -5.0710522388059704 1.0783507462686561 0.47044029850746183
C -3.8153522388059704 0.1782507462686569 0.19534029850746193
C -4.11845223880597 -1.3219492537313435 0.5608402985074619
C -2.96945223880597 -2.3874492537313436 0.7034402985074619
C -2.52015223880597 0.7359507462686565 0.7384402985074618
C -2.20305223880597 0.7852507462686571 2.097440298507462
C -1.5755522388059702 1.205650746268656 -0.18965970149253808
C -0.9533522388059701 1.2695507462686564 2.508640298507462
H -2.91125223880597 0.4298507462686567 2.840840298507462
C -0.32655223880597006 1.6562507462686575 0.21554029850746192
H -1.7850522388059702 1.178550746268657 -1.2573597014925382
C 0.004447761194029898 1.6956507462686563 1.569740298507462
H -0.7158522388059702 1.2676507462686573 3.5705402985074617
H 0.3943477611940298 1.9193507462686572 -0.5551597014925382
C -1.76045223880597 -2.1592492537313435 -0.1734597014925381
C -0.5287522388059701 -1.936549253731343 0.464840298507462
C -1.8068522388059702 -2.121249253731343 -1.5681597014925381
C 0.6114477611940299 -1.614449253731343 -0.2582597014925381
H -0.4544522388059702 -1.954049253731343 1.5506402985074619
C -0.6479522388059701 -1.8270492537313432 -2.2998597014925384
H -2.74345223880597 -2.290549253731343 -2.092259701492538
C 0.5698477611940298 -1.5506492537313434 -1.6506597014925382
H 1.5072477611940298 -1.351949253731343 0.2991402985074618
H -0.7173522388059701 -1.7640492537313435 -3.3840597014925375
C 1.7791477611940298 -1.082849253731343 -2.4255597014925376
H 1.4739477611940297 -0.9102492537313429 -3.464259701492538
H 2.1252477611940295 -0.1337492537313434 -2.0010597014925384
C 1.3965477611940298 2.0964507462686566 1.997440298507462
H 1.51704776119403 1.8448507462686567 3.057640298507462
H 2.1256477611940294 1.5207507462686571 1.4165402985074618
C 3.94864776119403 -1.4275492537313434 -3.522959701492538
H 4.81734776119403 -2.087049253731343 -3.615159701492538
H 3.4305477611940303 -1.3641492537313429 -4.484459701492538
H 4.26984776119403 -0.441449253731343 -3.176459701492538
C 2.60904776119403 -3.4296492537313434 -2.8992597014925376
H 1.9825477611940296 -3.869549253731343 -2.119359701492538
H 2.06294776119403 -3.373349253731343 -3.845759701492538
H 3.5215477611940305 -4.019849253731343 -3.0234597014925377
C 3.7281477611940304 -2.060049253731343 -1.156659701492538
H 3.9048477611940298 -1.032549253731343 -0.8295597014925382
H 3.12924776119403 -2.623249253731343 -0.4404597014925382
H 4.68244776119403 -2.5769492537313434 -1.3005597014925383
C 3.1110477611940297 3.755250746268656 2.588740298507462
H 3.40124776119403 4.809350746268656 2.534540298507462
H 2.9823477611940303 3.461750746268656 3.634840298507462
H 3.86514776119403 3.1392507462686563 2.091540298507462
C 1.99744776119403 3.9574507462686572 0.40494029850746194
H 2.67914776119403 3.230350746268657 -0.04295970149253803
H 1.03214776119403 3.981150746268657 -0.10175970149253821
H 2.4399477611940297 4.958250746268657 0.368240298507462
C 0.7418477611940297 4.4992507462686575 2.475440298507462
H -0.18475223880597014 4.424250746268656 1.901240298507462
H 0.57844776119403 4.189650746268656 3.511940298507462
H 1.1210477611940297 5.524350746268658 2.4432402985074617
N 3.00114776119403 -2.025349253731343 -2.490159701492538
N 1.7831477611940298 3.586450746268657 1.862540298507462
C -3.55075223880597 -3.8435492537313434 0.6444402985074619
H -2.62515223880597 -2.2736492537313433 1.7424402985074618
H -4.67195223880597 -1.3478492537313436 1.5102402985074619
H -4.83415223880597 -1.6757492537313432 -0.1945597014925382
H -3.7169522388059697 0.17335074626865676 -0.900559701492538
H -3.9132522388059705 -4.043149253731343 -0.34225970149253815
H -4.35435223880597 -3.9354492537313432 1.3449402985074619
H -2.78115223880597 -4.545049253731343 0.8904402985074619
H -5.24235223880597 1.138950746268657 1.5249402985074618
H -5.92805223880597 0.6501507462686567 -0.006059701492538094
H -4.89895223880597 2.059650746268657 0.08004029850746197
C -0.71506670155861 3.810690995730487 -2.63026347065497
O -1.8844362111152146 3.6674256754509478 -2.3080438301540425
O -0.12683364545777465 4.894921875314858 -2.7142678489097607
O 0.061052120472233185 2.8935994965765395 -2.922207199255229
O 9.370907821443065 -1.478145403122793 6.123270715275885
H 8.558670339482429 -1.0210307633916438 6.388381703244522
H 9.6979412753435 -1.8707204089167915 6.946615071639488
O 5.341582923608553 -0.6476640283624953 1.267520411363544
H 5.930534594720493 -1.4163307092932549 1.302943844587098
H 5.5445874023026755 -0.23639891159093693 0.41393261291689154
O -2.1648706709855396 2.943188843720642 -5.545646270551589
H -2.8174480408902887 3.591851200429664 -5.241759317595562
H -2.6198956227686763 2.092637556215582 -5.453577030963994
O 6.901122284898594 1.2213883552153786 -8.508867522253752
H 5.941493480227655 1.1029507127745806 -8.445208752246058
H 7.116605167623537 1.794213480981353 -7.757601626020109
O 0.9500805848826472 4.5661482438516945 -8.383583278092384
H 1.6226318455650854 5.22724879780321 -8.606267395665832
H 0.30536537239882255 5.057725916133737 -7.852870897225209
O -9.19163966807276 -0.4739587471570642 -2.632699780633752
H -9.481381291829036 -1.3946473026447055 -2.718430359525749
H -8.279068155713388 -0.48447982165882486 -2.958375211272071
O -9.267033737140576 -5.885612203517856 -5.112952133664513
H -9.378847606494162 -6.242553750198438 -6.0068524344662615
H -9.917828898864483 -5.169361901858109 -5.0638287466775145
O 4.668353674079991 9.464282425166374 2.3721826026612116
H 4.825406120936753 8.827395920555347 3.0853988854819665
H 4.060054420117881 9.002508487549605 1.775777712953689
O -0.4549176072667058 -6.861727622698217 2.786697355737931
H -0.3348635598288259 -7.728350724666527 2.370141499064892
H -1.3951238195802138 -6.842589901860016 3.0203808388260702
O -8.052254695106232 -2.257966079386286 -5.428893840012438
H -8.01911397577876 -2.859376471623994 -6.187955490822796
H -7.121333494939737 -2.123742357027459 -5.195802322069996
O 2.280673935833283 7.9291742760329615 -3.158711738776691
H 2.136227483702818 7.570051249965958 -2.2703800262304155
H 3.2453000559214886 7.952995775196121 -3.2475426394880555
O 4.798615713899173 -8.252089443134407 6.518320734883133
H 4.982298405679146 -7.333993904995994 6.268663753224691
H 4.186303764235797 -8.56257641093057 5.834483134697108
O -0.0022274755647120337 -4.427854383253512 -4.822754270023825
H -0.27888675358470527 -4.801690073017164 -3.9726519950919252
H 0.18294738074989203 -3.4984481317491047 -4.620575545739124
O 2.967384128853348 2.873474615855969 7.116906623000269
H 2.8271204181337857 2.8938514269581517 6.158325257687712
H 2.547334828894735 2.046523996879706 7.397394062432151
O 7.5136061519575 1.87822806170815 -3.116815697383504
H 8.12819695434485 1.7294708445665343 -3.851061427959555
H 7.890366862446318 1.3625191909006182 -2.388078658457678
O -1.4646761294017785 7.426293806360517 4.494612584811937
H -1.361745575649457 6.882036247570708 5.289695201716871
H -1.5666286427212124 6.779819133161908 3.780023103892576
O 4.5918394619088065 5.354422098944978 -0.9217225680021567
H 4.908827712713103 5.523137547994292 -0.021710955297008505
H 4.758367180494909 4.409214277498271 -1.0551865613429685
O 2.0947869760712297 -9.386864008712909 -5.029644429790607
H 2.4757694336375313 -8.846882503234959 -4.320955712744464
H 2.778648022208163 -9.388385029774062 -5.716152769413244
O 7.721222977410667 -3.259811966489471 7.604835730828251
H 7.639230199854298 -3.5550851981217977 8.524106235092363
H 7.150436934437291 -3.868156579646848 7.111802193338968
O -0.2938401668204321 -7.8602975282042005 -7.898984251647865
H 0.2794517978726291 -7.559956143860245 -7.177805540807945
H -0.5687556517172019 -7.0404845263081945 -8.336351445646493
C -4.135687217447423 2.7228511250123555 13.471531946681528
O -3.3476028605888755 1.9844547989682138 13.987780113224872
O -4.9237715743059685 3.4612474510564972 12.955283780138181
O -10.204213427997352 2.9573171640936735 19.450144515062433
H -10.027088780913875 2.7111735980909772 20.370474652138817
H -10.78880156684603 2.254722674599102 19.128306612463472
O 2.957098780593726 4.872670976411703 -3.758712879088251
H 3.680817257390869 4.8995900143069555 -4.402509654974258
H 3.332733245094368 5.286013201253747 -2.9668739443660783
O 3.395823512899309 4.5989328543407355 13.898522130805253
H 3.2618984845482517 5.4580438193033505 13.47078413440772
H 3.5191226231111195 4.819870271232313 14.83390757624379
O -17.553867998391606 3.6153028950761588 7.351653878904265
H -18.267822303148563 3.0039614195187703 7.587234455103417
H -16.81848937877253 3.3476967303845697 7.9231144381086605
O 13.757857401452565 -7.7914550057708265 6.848269861626125
H 13.9144740656393 -7.735902907659186 5.893621998906884
H 12.7954012750615 -7.716757844583087 6.932296543000568
O -12.577644260455513 -10.95147072984042 12.288660295608175
H -11.883312858179941 -10.3461684812839 12.589459977467154
H -12.637294618391989 -10.784347364031207 11.33604622910556
O -6.3500415111512 6.368371552151556 18.36546781499765
H -7.054031036172329 7.023387902984412 18.48513270417628
H -5.812899876846377 6.731021315861652 17.645102659068133
O 3.3806770670917317 -11.886339889781578 12.402360719204701
H 2.7659805206688866 -11.290393287391595 11.948529076615003
H 3.330702510614129 -12.707895438531652 11.890979287861292
O 1.4362500668218865 -7.450086370105023 -9.765414668111843
H 1.4699116001834764 -7.447615087604717 -10.733829946199993
H 2.3609396520183026 -7.336864541019651 -9.498783963301161
O 0.23444878854174167 -14.287569059812032 2.80031348423072
H -0.32381727645174685 -14.409144580592638 3.582953727461037
H 1.1378649790867277 -14.339035928686272 3.1469433911479765
O -4.579947186549509 -14.549299792519978 -10.299407950578509
H -4.401608814062941 -14.643980868976902 -9.351674720413078
H -4.934298423308233 -15.41321405570703 -10.55834672938449
O 15.3467790776443 0.2916264424195294 7.168312035854187
H 14.984895689053683 0.6658274374585966 6.35101075402848
H 16.21698759448285 0.7096160308141952 7.251881082248847
O -4.755697688349505 -9.454495503722736 -13.180678754035831
H -4.778881246354426 -9.339490373893614 -12.218803658375682
H -5.6661739361223145 -9.275412423562045 -13.459827812679606
O 0.30039966291259335 -9.766326834887899 7.544253774450789
H 1.043808822508623 -10.3731697616107 7.409896636139381
H -0.2897475430316634 -10.248117735790949 8.143057371152757
O 8.753599665637303 -15.897613362527842 -4.831213141573079
H 8.956420903024672 -15.0597647461823 -5.273751951907851
H 8.8550496854128 -15.695222281414651 -3.889030734566142
O 18.871068360665557 1.8643862390404955 -11.337265147677442
H 18.641872775858566 1.8321920676829502 -10.396308041250382
H 19.76026466402763 2.2493079386587196 -11.348541829381094
O -10.01457749556587 -1.952124201638198 -18.72496782827664
H -9.812147082958122 -1.7462916941952775 -19.649966349265306
H -10.5384883512026 -2.765714234810199 -18.775471467444248
O -6.208178565554823 -13.231396223024358 10.202338835000866
H -6.1367695161128 -13.93071719310865 10.869285823417606
H -7.13554807119232 -12.954774995929423 10.251618050032715
O 5.425360667114271 -13.414421755911782 -15.759173901875734
H 5.269777043575802 -12.459547435518823 -15.704620027212869
H 5.3425688190325 -13.717797374057218 -14.842620199954194
O 17.280883595325676 12.646438608320203 -6.899357277367934
H 18.205109498362578 12.36357721747345 -6.8303408255331295
H 16.861897160803 11.950389995685072 -7.427494230093915