194

C -5.0710522388059704 1.0783507462686561 0.47044029850746183
C -3.8153522388059704 0.1782507462686569 0.19534029850746193
C -4.11845223880597 -1.3219492537313435 0.5608402985074619
C -2.96945223880597 -2.3874492537313436 0.7034402985074619
C -2.52015223880597 0.7359507462686565 0.7384402985074618
C -2.20305223880597 0.7852507462686571 2.097440298507462
C -1.5755522388059702 1.205650746268656 -0.18965970149253808
C -0.9533522388059701 1.2695507462686564 2.508640298507462
H -2.91125223880597 0.4298507462686567 2.840840298507462
C -0.32655223880597006 1.6562507462686575 0.21554029850746192
H -1.7850522388059702 1.178550746268657 -1.2573597014925382
C 0.004447761194029898 1.6956507462686563 1.569740298507462
H -0.7158522388059702 1.2676507462686573 3.5705402985074617
H 0.3943477611940298 1.9193507462686572 -0.5551597014925382
C -1.76045223880597 -2.1592492537313435 -0.1734597014925381
C -0.5287522388059701 -1.936549253731343 0.464840298507462
C -1.8068522388059702 -2.121249253731343 -1.5681597014925381
C 0.6114477611940299 -1.614449253731343 -0.2582597014925381
H -0.4544522388059702 -1.954049253731343 1.5506402985074619
C -0.6479522388059701 -1.8270492537313432 -2.2998597014925384
H -2.74345223880597 -2.290549253731343 -2.092259701492538
C 0.5698477611940298 -1.5506492537313434 -1.6506597014925382
H 1.5072477611940298 -1.351949253731343 0.2991402985074618
H -0.7173522388059701 -1.7640492537313435 -3.3840597014925375
C 1.7791477611940298 -1.082849253731343 -2.4255597014925376
H 1.4739477611940297 -0.9102492537313429 -3.464259701492538
H 2.1252477611940295 -0.1337492537313434 -2.0010597014925384
C 1.3965477611940298 2.0964507462686566 1.997440298507462
H 1.51704776119403 1.8448507462686567 3.057640298507462
H 2.1256477611940294 1.5207507462686571 1.4165402985074618
C 3.94864776119403 -1.4275492537313434 -3.522959701492538
H 4.81734776119403 -2.087049253731343 -3.615159701492538
H 3.4305477611940303 -1.3641492537313429 -4.484459701492538
H 4.26984776119403 -0.441449253731343 -3.176459701492538
C 2.60904776119403 -3.4296492537313434 -2.8992597014925376
H 1.9825477611940296 -3.869549253731343 -2.119359701492538
H 2.06294776119403 -3.373349253731343 -3.845759701492538
H 3.5215477611940305 -4.019849253731343 -3.0234597014925377
C 3.7281477611940304 -2.060049253731343 -1.156659701492538
H 3.9048477611940298 -1.032549253731343 -0.8295597014925382
H 3.12924776119403 -2.623249253731343 -0.4404597014925382
H 4.68244776119403 -2.5769492537313434 -1.3005597014925383
C 3.1110477611940297 3.755250746268656 2.588740298507462
H 3.40124776119403 4.809350746268656 2.534540298507462
H 2.9823477611940303 3.461750746268656 3.634840298507462
H 3.86514776119403 3.1392507462686563 2.091540298507462
C 1.99744776119403 3.9574507462686572 0.40494029850746194
H 2.67914776119403 3.230350746268657 -0.04295970149253803
H 1.03214776119403 3.981150746268657 -0.10175970149253821
H 2.4399477611940297 4.958250746268657 0.368240298507462
C 0.7418477611940297 4.4992507462686575 2.475440298507462
H -0.18475223880597014 4.424250746268656 1.901240298507462
H 0.57844776119403 4.189650746268656 3.511940298507462
H 1.1210477611940297 5.524350746268658 2.4432402985074617
N 3.00114776119403 -2.025349253731343 -2.490159701492538
N 1.7831477611940298 3.586450746268657 1.862540298507462
C -3.55075223880597 -3.8435492537313434 0.6444402985074619
H -2.62515223880597 -2.2736492537313433 1.7424402985074618
H -4.67195223880597 -1.3478492537313436 1.5102402985074619
H -4.83415223880597 -1.6757492537313432 -0.1945597014925382
H -3.7169522388059697 0.17335074626865676 -0.900559701492538
H -3.9132522388059705 -4.043149253731343 -0.34225970149253815
H -4.35435223880597 -3.9354492537313432 1.3449402985074619
H -2.78115223880597 -4.545049253731343 0.8904402985074619
H -5.24235223880597 1.138950746268657 1.5249402985074618
H -5.92805223880597 0.6501507462686567 -0.006059701492538094
H -4.89895223880597 2.059650746268657 0.08004029850746197
C 2.937369310019859 2.4313950451285713 -2.697279527368074
O 3.485928331810566 1.4997339400559526 -2.129066465650122
O 3.3979610680743066 3.574192908996141 -2.799747760748149
O 1.836740664652833 2.375595348119361 -3.2577715997573504
O -6.44952918166298 5.267281657150752 -5.797545063424001
H -6.522014472814608 5.122653174566526 -6.752948560116392
H -5.536968088927653 5.0150531578578255 -5.591208007929495
O 8.027177905979574 3.480511344701955 -2.043899980054181
H 8.267445240375212 2.915286927963238 -1.294393259840952
H 7.082011319139838 3.650861403239876 -1.9150476421714249
O 1.0161956598154163 0.2735393037531155 4.250869022555155
H 1.4399688048287362 -0.5478818430205715 3.9599206111511376
H 1.6282707894530106 0.6314872142569453 4.911322861475835
O 7.989387144551786 2.9733208300991913 2.2246800022505124
H 7.660577904380927 3.36584767788305 1.4020169398445659
H 8.101113060027942 2.035438969426475 2.0082155027775106
O 6.533629609903011 1.615244113058628 -8.055034578395004
H 7.121349561324901 2.3535058206684547 -8.275312281936866
H 7.095641809391443 0.8318051069884316 -8.151613849949095
O -9.014839498184191 0.18344220407178513 5.660777561111893
H -9.05796748758794 1.1053083818088785 5.365362456937458
H -8.655870007011725 0.24202480905552592 6.5589261719223195
O 3.9964945602232342 1.8120024200743603 -6.494126829404798
H 4.286456160657893 1.565176399213722 -5.603078826994447
H 3.9193214872662434 2.7771795675639193 -6.456188259659852
O -1.8202615436773937 -3.9822196588846923 -4.4151412945656965
H -1.9100948190001705 -3.929545645188642 -3.4517499992832805
H -1.1363897706458852 -3.327809256671025 -4.622574097722011
O 9.725775146394202 -0.8243357643321776 0.9822965435149813
H 10.255062827531162 -0.013054413606637727 1.0076831041644199
H 9.269207326765056 -0.8327718333377239 1.8369523825044642
O 0.8171452835138622 -2.8698090145472226 -6.659442015336745
H 0.5317211050556692 -2.0394465008983764 -7.06931820539691
H 0.8754197609338639 -3.489501674236226 -7.402104143837313
O 5.426264557481276 1.5479577020968458 -12.524965125223012
H 4.480612518650845 1.6260327910831478 -12.328461031536314
H 5.513670789954921 1.9310345224322933 -13.410727082267028
O 0.3598274476732293 -3.172945083673539 -11.211485265292492
H 0.8482214222293731 -3.9752586244652326 -11.449669363795202
H -0.3646663322048833 -3.4964215259367863 -10.655217615218685
O 7.376823148070599 5.869555472629512 4.447202522836783
H 7.735237097720002 5.830727444629582 5.3466463408923355
H 7.65708487689277 5.032632012146201 4.047234487926183
O -3.2819542893965226 -4.9068374668104235 -8.12544605544387
H -2.7224625790771317 -4.328428180141575 -8.66524146120342
H -2.6729136184982503 -5.588979457466945 -7.804956258297473
O -1.3687210136838408 6.433104556537111 7.7735641783336975
H -0.7558157288806194 6.348934660715118 7.027755960761916
H -1.2460946677409441 5.610769530143109 8.271248644583418
O -10.445461715459816 2.59719418284524 -0.5714922665874318
H -11.07761365102995 2.589519407443012 0.16287302744372
H -9.609669173231476 2.32492055234147 -0.16371801435001387
O -3.339754747704702 3.7333185679200533 7.206385745451858
H -3.7759255306730255 3.718987739871282 6.3412169570919
H -4.049472889908132 3.517718248841157 7.829906880089959
O -1.2626639951866667 7.005702926071322 4.457167743856264
H -2.1370129572198584 7.060331574005748 4.871289658654719
H -1.3951716660156908 6.404244716871317 3.7090690310800767
O 5.671004007285633 0.45657308543620245 1.9296457490905763
H 6.4711924852718 0.7952970670012594 1.500773016323734
H 5.949159728878494 0.28486150952944844 2.84184445197541
O -3.9676386148744296 9.622443512832007 -1.6384615184451736
H -4.520912893400212 9.949721097107808 -2.3635437982261447
H -3.0643073885433134 9.697894063692562 -1.980896700939555
C -6.940788730653201 9.882659486316928 10.156696966728282
O -6.685085215881111 9.335901859720618 11.190374898964414
O -7.19649224542529 10.42941711291324 9.123019034492149
O -13.921485031091406 -8.454140948446451 2.1508200380808056
H -13.327169463199526 -9.127704831516834 2.514231730358998
H -13.536442320712151 -7.616565635038536 2.4494362631145936
O -5.624790919261908 4.639830704759518 10.101053887049146
H -5.8130999723335055 4.676682841526665 9.151238653729015
H -5.097001466513034 3.8337179395289906 10.2039249111494
O -3.9760613118413373 -7.919040849708491 -16.410191547178986
H -4.4603640189892415 -8.056783321493075 -15.582275333896572
H -4.631137409253022 -7.517326275285739 -17.00049879903705
O 16.894566514691885 3.4491516309405963 0.3048280237706029
H 17.028592381327474 2.5952277808741933 0.7427988929620977
H 17.667039562750194 3.5395462972275324 -0.27316517569664
O -5.22351311008 -18.603538148746907 2.6367525393152356
H -5.172784587459523 -18.52821373729823 1.6720141255819294
H -5.283048141920631 -19.557805053742506 2.7942079244687994
O 7.279076442624523 -12.526444433580401 17.790368952839692
H 7.430045082808514 -13.241774201257286 17.15438219978871
H 6.729186991995128 -11.893525116937099 17.30457406298773
O 12.747302845739283 18.014725917528793 -4.923395010082105
H 12.670779309453376 17.612611648707656 -4.045092317324795
H 12.28430745880783 18.86129153635652 -4.834378893569331
O -1.7555194281199555 9.88208463023568 9.314706636013696
H -1.8483130056011294 10.82231632952357 9.529929916660684
H -0.8191508954351296 9.695430399535084 9.48004300061397
O -10.678934500962502 12.178882244461981 1.519790561116638
H -10.140928761886025 12.980854677679822 1.4400572683248
H -10.061188546246902 11.461211016961858 1.3141211930741994
O 5.093392165429221 -9.279471888707716 12.622044308766782
H 5.7558622087233795 -9.170533056609536 13.320781118659404
H 4.444664014779291 -8.583030060304909 12.803930290923935
O 3.469201656280249 14.323015131368553 -7.064768141840252
H 4.020258776351195 14.881044856025033 -6.495640534252176
H 3.522508448986343 13.446376451877395 -6.655347873935268
O -17.709093010207027 -1.9056180949845598 -4.885237890681313
H -18.21335081937736 -1.8498966903129577 -5.7108204388569375
H -16.8472156055355 -2.2526522068993557 -5.160368057664466
O 21.474977854663535 -2.6281379941959138 0.8559799307338061
H 21.552769219418096 -2.583757147449006 -0.10887560296626653
H 20.520728413154547 -2.693800561690164 1.0110875543692939
O 14.242367376001079 2.365139227372092 -3.9388271662357868
H 14.733510214776432 1.57115138148851 -3.679348131612874
H 13.59358613339849 2.4815882041493778 -3.22855645773475
O 10.57613749996992 0.6903847491901027 4.121555850621645
H 11.2165664356895 0.2280938803593653 3.5602134526248337
H 9.71896620750856 0.4776458146527087 3.7228561322720948
O -12.64096254474188 -9.637378276454642 -5.797597552630242
H -12.236031689657082 -10.01576825922924 -6.592468221630007
H -12.439439711646317 -8.691609744937617 -5.859825977270984
O -11.231936306474617 -2.240875474288064 -11.825318969595537
H -11.393114435979138 -2.142497502565436 -10.874892358988927
H -11.673601508182681 -1.4731234567032874 -12.218321047700323
O -11.564611018847943 12.817610959186906 -12.3611245213229
H -11.199663119343633 12.74193612105453 -11.466667308024782
H -11.776865886517221 11.904233986647192 -12.605362768706234
O 2.8819342096890823 -7.974630266492843 3.003747460601699
H 3.2847368374846804 -7.459593250958071 3.7189077730981333
H 3.355779325242886 -8.819518053948006 3.028188765291118
O -3.4782382514465002 5.865656511841651 6.205938325607321
H -3.643729996165663 5.575134372736379 5.296445760481302
H -3.778565300915746 6.786889695513812 6.2156866053709905