194

C -5.0710522388059704 1.0783507462686561 0.47044029850746183
C -3.8153522388059704 0.1782507462686569 0.19534029850746193
C -4.11845223880597 -1.3219492537313435 0.5608402985074619
C -2.96945223880597 -2.3874492537313436 0.7034402985074619
C -2.52015223880597 0.7359507462686565 0.7384402985074618
C -2.20305223880597 0.7852507462686571 2.097440298507462
C -1.5755522388059702 1.205650746268656 -0.18965970149253808
C -0.9533522388059701 1.2695507462686564 2.508640298507462
H -2.91125223880597 0.4298507462686567 2.840840298507462
C -0.32655223880597006 1.6562507462686575 0.21554029850746192
H -1.7850522388059702 1.178550746268657 -1.2573597014925382
C 0.004447761194029898 1.6956507462686563 1.569740298507462
H -0.7158522388059702 1.2676507462686573 3.5705402985074617
H 0.3943477611940298 1.9193507462686572 -0.5551597014925382
C -1.76045223880597 -2.1592492537313435 -0.1734597014925381
C -0.5287522388059701 -1.936549253731343 0.464840298507462
C -1.8068522388059702 -2.121249253731343 -1.5681597014925381
C 0.6114477611940299 -1.614449253731343 -0.2582597014925381
H -0.4544522388059702 -1.954049253731343 1.5506402985074619
C -0.6479522388059701 -1.8270492537313432 -2.2998597014925384
H -2.74345223880597 -2.290549253731343 -2.092259701492538
C 0.5698477611940298 -1.5506492537313434 -1.6506597014925382
H 1.5072477611940298 -1.351949253731343 0.2991402985074618
H -0.7173522388059701 -1.7640492537313435 -3.3840597014925375
C 1.7791477611940298 -1.082849253731343 -2.4255597014925376
H 1.4739477611940297 -0.9102492537313429 -3.464259701492538
H 2.1252477611940295 -0.1337492537313434 -2.0010597014925384
C 1.3965477611940298 2.0964507462686566 1.997440298507462
H 1.51704776119403 1.8448507462686567 3.057640298507462
H 2.1256477611940294 1.5207507462686571 1.4165402985074618
C 3.94864776119403 -1.4275492537313434 -3.522959701492538
H 4.81734776119403 -2.087049253731343 -3.615159701492538
H 3.4305477611940303 -1.3641492537313429 -4.484459701492538
H 4.26984776119403 -0.441449253731343 -3.176459701492538
C 2.60904776119403 -3.4296492537313434 -2.8992597014925376
H 1.9825477611940296 -3.869549253731343 -2.119359701492538
H 2.06294776119403 -3.373349253731343 -3.845759701492538
H 3.5215477611940305 -4.019849253731343 -3.0234597014925377
C 3.7281477611940304 -2.060049253731343 -1.156659701492538
H 3.9048477611940298 -1.032549253731343 -0.8295597014925382
H 3.12924776119403 -2.623249253731343 -0.4404597014925382
H 4.68244776119403 -2.5769492537313434 -1.3005597014925383
C 3.1110477611940297 3.755250746268656 2.588740298507462
H 3.40124776119403 4.809350746268656 2.534540298507462
H 2.9823477611940303 3.461750746268656 3.634840298507462
H 3.86514776119403 3.1392507462686563 2.091540298507462
C 1.99744776119403 3.9574507462686572 0.40494029850746194
H 2.67914776119403 3.230350746268657 -0.04295970149253803
H 1.03214776119403 3.981150746268657 -0.10175970149253821
H 2.4399477611940297 4.958250746268657 0.368240298507462
C 0.7418477611940297 4.4992507462686575 2.475440298507462
H -0.18475223880597014 4.424250746268656 1.901240298507462
H 0.57844776119403 4.189650746268656 3.511940298507462
H 1.1210477611940297 5.524350746268658 2.4432402985074617
N 3.00114776119403 -2.025349253731343 -2.490159701492538
N 1.7831477611940298 3.586450746268657 1.862540298507462
C -3.55075223880597 -3.8435492537313434 0.6444402985074619
H -2.62515223880597 -2.2736492537313433 1.7424402985074618
H -4.67195223880597 -1.3478492537313436 1.5102402985074619
H -4.83415223880597 -1.6757492537313432 -0.1945597014925382
H -3.7169522388059697 0.17335074626865676 -0.900559701492538
H -3.9132522388059705 -4.043149253731343 -0.34225970149253815
H -4.35435223880597 -3.9354492537313432 1.3449402985074619
H -2.78115223880597 -4.545049253731343 0.8904402985074619
H -5.24235223880597 1.138950746268657 1.5249402985074618
H -5.92805223880597 0.6501507462686567 -0.006059701492538094
H -4.89895223880597 2.059650746268657 0.08004029850746197
C -0.1375769622641663 0.9478844372936979 -4.044360252335569
O 0.12000196066585508 0.2764252480845655 -5.031563956891434
O -1.2731178675034984 1.2784553217930126 -3.683942152138619
O 0.697450057002242 1.4007329223914464 -3.2529649585412903
O 4.122078978728599 2.622186352643766 -9.330958245277403
H 3.6666978352268744 2.977949724720212 -8.55312291943275
H 3.666639495894194 1.7850510601798777 -9.506290284240425
O -5.072019477559496 -1.69490665272759 5.426873993479852
H -5.637035931131271 -1.6672888331823434 4.6401332355826
H -4.483575168354926 -0.9325908203285488 5.319310937840333
O -0.6675473057343815 -4.493802269506123 3.713794094162037
H 0.05213731087001257 -5.14190987486237 3.7450661488175605
H -0.9170614383185599 -4.466085397293287 2.7778793454079094
O 1.319115043022703 9.388275605153208 -6.071439819482756
H 2.0962785192538234 9.045184360139416 -5.6053146370400455
H 0.9626243448845397 10.05909810724198 -5.469880597849237
O -2.5429471045751937 -6.456748429747027 -2.9999563143935477
H -2.7927999952369573 -6.837366254119304 -3.855333986359608
H -3.3898813886257937 -6.3110201281012195 -2.5522649866920553
O 0.5764756448331618 -3.58805120220486 -5.928859577067209
H 0.24605125997526045 -2.953122397336351 -6.582045994209762
H 0.39412085148566867 -3.1637819008205317 -5.076976818968392
O -7.388692377244484 -3.3920971498471135 -3.2859823539432043
H -6.78630415799994 -2.666065079854649 -3.5072813000722927
H -7.695756147372446 -3.17733388064042 -2.3923658122574234
O 2.334145241540669 -4.454472353476696 7.816784943961889
H 3.259124466408805 -4.658697032011137 7.6126451116413705
H 2.276056750852397 -3.493861131817157 7.70358709781928
O -2.0973755548081865 6.290079501964277 2.5332259652545153
H -2.377940847090795 5.5986169161861215 3.151392582062121
H -2.799746815530752 6.306457521769007 1.86586675397601
O -7.88622253317028 -6.534505263348032 6.484067648519097
H -7.874649517598325 -5.585448297127289 6.288813206627363
H -8.755203167706451 -6.679901792510014 6.887421649873691
O -6.156912639413045 1.8610156377680431 -3.4803868123045083
H -5.458209244508448 1.571282148520702 -2.874717407383513
H -6.93263694774902 1.9667512260092852 -2.909393180872466
O -6.494111857985471 -4.5015229975677125 0.5544847713441596
H -6.432466160172098 -5.468424915052816 0.5708507972738532
H -7.427985037849517 -4.329767110318298 0.36124206533489556
O -5.875579555570832 -8.142547967329618 4.860993276674238
H -5.9060618274636125 -8.137428237199499 3.892483092750676
H -5.393142718637056 -7.332384713956378 5.084269217055231
O 4.942401800167028 -8.383678587018105 -3.7351156981532676
H 4.81143924207414 -8.34992444871661 -2.7755966397571923
H 4.824807491728048 -7.464953269488318 -4.019856481766277
O 4.232073567488319 -5.3773717452227965 4.184520432461846
H 3.925972298742104 -5.442550710776768 3.2674484218643833
H 4.81330592627964 -6.145156591245296 4.292396841431006
O 3.069142983215869 -10.201413169866026 -4.9804238945667985
H 2.820550012878277 -9.494020054836636 -5.59423483680207
H 2.3249970418737798 -10.820594208879296 -5.023127561980067
O 6.404451833969375 -5.242271358030441 0.821709112227533
H 6.367112596798344 -5.214512167141604 1.7895947281908469
H 5.4881195631703 -5.0868786231850045 0.5475737227765085
O 2.7204711333494456 -5.155529098950399 -5.647799099867652
H 2.5120465854504674 -5.2875787140519215 -4.71073482038377
H 3.5042112521756508 -4.585831423344296 -5.635232125240096
O -1.4835230137946518 -7.1063138040546034 0.5332995429297438
H -1.1316431887279885 -7.387109147119054 1.3913799126646378
H -1.1410561443016827 -7.766762224943222 -0.08757586401227191
O 5.3956465050574645 0.6809690096578606 1.3180104262326133
H 5.677874622357345 0.8577819056893153 2.227983967882224
H 5.898346011337367 1.318457753552216 0.7889893944258071
C -9.643303557340975 5.513545526251198 -13.623784798319821
O -8.567236741358887 5.979427899222689 -13.86430939040267
O -10.719370373323066 5.047663153279707 -13.383260206236972
O -0.6525273782192968 -9.86646763181446 15.66116606900679
H -0.8471432474418013 -10.260965225546936 14.797763689530074
H -1.086842698037593 -9.000953040906424 15.626285699220535
O 7.307316734396264 0.006094619434146686 -8.92853458387605
H 7.34662219521036 -0.8594985324340865 -9.362321320751455
H 6.483322950153195 -0.024377249786011745 -8.41954769503213
O 4.864028609910753 1.7759342741215312 16.19959365599277
H 4.16481923081619 1.2673890207625558 15.76203757230492
H 5.136346072135916 1.2115634141434777 16.938708448480973
O -13.614184826446898 10.66418537187694 1.011467588325695
H -13.760842218698194 9.941158766717876 0.38322281562144944
H -14.178087836651228 11.379506483016382 0.6808756232982174
O -15.755232606895747 -2.411002796243517 -1.0574572500860118
H -15.588054219554897 -2.333097254108866 -2.0087455713697433
H -15.100884185430042 -1.8199570800353566 -0.6556425552609947
O 11.137203326208251 4.143687289217525 -9.512225600239447
H 11.380783270426608 3.845913551670347 -10.401588838124715
H 10.25558271837068 3.766641826879324 -9.37242657497002
O -14.225025407193723 -8.878262693394477 2.4671728479680297
H -13.439474334964677 -8.332669178097422 2.6227510787254253
H -14.05577403401781 -9.683558996606777 2.9788502668665693
O -5.197070596930173 20.38599769066621 2.0311606329026874
H -5.2439732742575815 20.278595653800423 2.9930505945077575
H -6.124885099243887 20.4062478993293 1.7523916915812792
O 3.4983033709957096 -7.950005248353195 2.220959603177833
H 2.9909736992606373 -7.44709701344574 1.566232737729766
H 3.3842478353696466 -7.44759847535307 3.0416548654625934
O 13.756383244124628 10.254751250064249 2.40554671333788
H 14.306609239174971 10.226833506203297 1.6084022403290177
H 14.087349909613124 11.024967908436846 2.8915398303681323
O 3.956982460012956 -6.965195191417177 -11.585307242649487
H 3.7244630867843735 -6.553021389694953 -12.430892752900956
H 3.387846856990782 -6.516688939028771 -10.941965380774251
O -10.332587140309212 -1.716370509985844 6.134227477333942
H -10.31131544018803 -1.5481644100611995 5.180172143706959
H -9.753225796319539 -1.0339533868192725 6.505184681603573
O -15.80454089778224 -5.698334665600157 -14.062123613894851
H -15.831979094188474 -5.565070193555066 -13.102720110269543
H -15.992582485564562 -4.820111165332977 -14.425889732634303
O -13.622552339186324 -0.3283413996679112 -10.02342046615681
H -13.051289633621266 -1.0434363293838333 -9.705198028819224
H -13.366125540380912 -0.21932681207309557 -10.951495388157152
O -9.999919229948624 5.130523087537001 13.094367990071074
H -10.08797898490683 5.004189075221529 12.137679663713438
H -10.901854084965986 5.328108731617244 13.388366926902833
O 10.58739168773772 5.439290672888813 3.778158154827753
H 10.549370444041973 5.52060340078333 2.8133213902866308
H 11.53512942764772 5.466602025005636 3.97818118024192
O -1.5991190335851517 0.6518404621402614 -19.51340395245416
H -1.9736098614399171 0.9829298164754017 -18.683281180691697
H -1.5011289953915974 1.4464056344925602 -20.059321605218376
O 1.3505807293828962 14.918234556934435 -7.634484978112008
H 1.2093401275418811 14.819913919631055 -8.58808421341573
H 2.3096187791736105 14.827898890431273 -7.529378219475591
O 4.0378667207960355 -13.118703833865148 -9.398421155406773
H 4.316495829698008 -13.494031900614925 -8.549620814406389
H 3.966254532603391 -12.168595125646323 -9.22199246905158
O -1.3278096967264457 22.822544313550164 -7.074874129525519
H -1.6014591030598382 22.570924958463543 -6.180016006994815
H -2.1608265652393275 22.882219174805783 -7.566284092801721