194

C -5.0710522388059704 1.0783507462686561 0.47044029850746183
C -3.8153522388059704 0.1782507462686569 0.19534029850746193
C -4.11845223880597 -1.3219492537313435 0.5608402985074619
C -2.96945223880597 -2.3874492537313436 0.7034402985074619
C -2.52015223880597 0.7359507462686565 0.7384402985074618
C -2.20305223880597 0.7852507462686571 2.097440298507462
C -1.5755522388059702 1.205650746268656 -0.18965970149253808
C -0.9533522388059701 1.2695507462686564 2.508640298507462
H -2.91125223880597 0.4298507462686567 2.840840298507462
C -0.32655223880597006 1.6562507462686575 0.21554029850746192
H -1.7850522388059702 1.178550746268657 -1.2573597014925382
C 0.004447761194029898 1.6956507462686563 1.569740298507462
H -0.7158522388059702 1.2676507462686573 3.5705402985074617
H 0.3943477611940298 1.9193507462686572 -0.5551597014925382
C -1.76045223880597 -2.1592492537313435 -0.1734597014925381
C -0.5287522388059701 -1.936549253731343 0.464840298507462
C -1.8068522388059702 -2.121249253731343 -1.5681597014925381
C 0.6114477611940299 -1.614449253731343 -0.2582597014925381
H -0.4544522388059702 -1.954049253731343 1.5506402985074619
C -0.6479522388059701 -1.8270492537313432 -2.2998597014925384
H -2.74345223880597 -2.290549253731343 -2.092259701492538
C 0.5698477611940298 -1.5506492537313434 -1.6506597014925382
H 1.5072477611940298 -1.351949253731343 0.2991402985074618
H -0.7173522388059701 -1.7640492537313435 -3.3840597014925375
C 1.7791477611940298 -1.082849253731343 -2.4255597014925376
H 1.4739477611940297 -0.9102492537313429 -3.464259701492538
H 2.1252477611940295 -0.1337492537313434 -2.0010597014925384
C 1.3965477611940298 2.0964507462686566 1.997440298507462
H 1.51704776119403 1.8448507462686567 3.057640298507462
H 2.1256477611940294 1.5207507462686571 1.4165402985074618
C 3.94864776119403 -1.4275492537313434 -3.522959701492538
H 4.81734776119403 -2.087049253731343 -3.615159701492538
H 3.4305477611940303 -1.3641492537313429 -4.484459701492538
H 4.26984776119403 -0.441449253731343 -3.176459701492538
C 2.60904776119403 -3.4296492537313434 -2.8992597014925376
H 1.9825477611940296 -3.869549253731343 -2.119359701492538
H 2.06294776119403 -3.373349253731343 -3.845759701492538
H 3.5215477611940305 -4.019849253731343 -3.0234597014925377
C 3.7281477611940304 -2.060049253731343 -1.156659701492538
H 3.9048477611940298 -1.032549253731343 -0.8295597014925382
H 3.12924776119403 -2.623249253731343 -0.4404597014925382
H 4.68244776119403 -2.5769492537313434 -1.3005597014925383
C 3.1110477611940297 3.755250746268656 2.588740298507462
H 3.40124776119403 4.809350746268656 2.534540298507462
H 2.9823477611940303 3.461750746268656 3.634840298507462
H 3.86514776119403 3.1392507462686563 2.091540298507462
C 1.99744776119403 3.9574507462686572 0.40494029850746194
H 2.67914776119403 3.230350746268657 -0.04295970149253803
H 1.03214776119403 3.981150746268657 -0.10175970149253821
H 2.4399477611940297 4.958250746268657 0.368240298507462
C 0.7418477611940297 4.4992507462686575 2.475440298507462
H -0.18475223880597014 4.424250746268656 1.901240298507462
H 0.57844776119403 4.189650746268656 3.511940298507462
H 1.1210477611940297 5.524350746268658 2.4432402985074617
N 3.00114776119403 -2.025349253731343 -2.490159701492538
N 1.7831477611940298 3.586450746268657 1.862540298507462
C -3.55075223880597 -3.8435492537313434 0.6444402985074619
H -2.62515223880597 -2.2736492537313433 1.7424402985074618
H -4.67195223880597 -1.3478492537313436 1.5102402985074619
H -4.83415223880597 -1.6757492537313432 -0.1945597014925382
H -3.7169522388059697 0.17335074626865676 -0.900559701492538
H -3.9132522388059705 -4.043149253731343 -0.34225970149253815
H -4.35435223880597 -3.9354492537313432 1.3449402985074619
H -2.78115223880597 -4.545049253731343 0.8904402985074619
H -5.24235223880597 1.138950746268657 1.5249402985074618
H -5.92805223880597 0.6501507462686567 -0.006059701492538094
H -4.89895223880597 2.059650746268657 0.08004029850746197
C 0.9842885047030805 -0.3120470554740753 4.5308818073704575
O 0.5218615961012321 -0.8377376549084808 3.530088998409865
O 2.120499312728618 0.16645549307522844 4.6241114960848195
O 0.3875976556453742 -0.17720759603071912 5.60532433036916
O 6.432822318023552 -3.7575680956506092 -1.3594939675964657
H 6.842978878995044 -3.5240621942922004 -2.2057882110028815
H 7.169599140603408 -3.7426005697070215 -0.7302898423904547
O -6.390833900266783 -4.879765654893674 7.998894967170909
H -6.391080348780292 -4.987712881000739 7.0359231646040215
H -5.534065318611788 -5.238896290228112 8.274457534572893
O -0.13990864017758795 3.4489413762193237 -5.260157200355372
H 0.029356927287140948 2.9549676770096327 -4.443881199813926
H 0.4454615394973778 3.0332666632730048 -5.9109399829059655
O -2.439738512023206 5.028838993846951 1.8354070893291314
H -3.071067366737893 4.446624568823132 1.3866113703223368
H -1.9482263690420167 5.443968734407383 1.1108071610209187
O 4.826161102779972 6.218839659929902 -2.6613919498527423
H 5.147021970053856 5.675635402193273 -3.3968814434072376
H 4.945195949495031 7.128611080501011 -2.9730144969823566
O -2.3382105899254837 7.636521779720878 3.4658983195779767
H -2.8421705050111727 6.904361172292563 3.079980445131836
H -3.0179602235547214 8.216970994154789 3.840038786974879
O -4.025077111769727 -10.381743523113167 1.1029780057869412
H -3.3194074219016145 -9.848897568849729 1.4993021593866547
H -4.7555147756668275 -10.310670437342774 1.7357270713252622
O -7.337046057680935 -2.664671523034458 3.9620338596621014
H -7.053569597282082 -3.1013404743643025 3.144764821802333
H -7.789430093072719 -1.864589231663943 3.6551479592724787
O 7.740571205488483 -3.6281298176446417 5.48520703854694
H 7.76792747716018 -4.59663566570688 5.470530064421771
H 7.16062647350118 -3.4216730445470307 6.233539620346167
O 7.318510233042591 -0.2835680858752774 -3.7067130892703783
H 6.669658188792225 0.3458025353563232 -3.357641459511283
H 7.342924253775467 -0.9877236045622939 -3.0414831249766223
O -3.1671812621018267 8.845094790539019 -6.271319304262464
H -2.3105197006309743 8.454891069883235 -6.041451119459297
H -2.93676584030304 9.605207041421423 -6.826386907132395
O -2.871713496066358 -3.899615685319196 4.803733678431873
H -2.7562449278459544 -4.605944178857078 5.456982808450152
H -2.4863511787331216 -3.120092871426321 5.231287197070291
O 2.2142221894955716 -2.2183872558295192 -8.311605313978946
H 2.112744717593527 -2.1518997119131367 -9.272984056255027
H 1.9547241932116926 -3.13026787434731 -8.11136427973206
O -7.47548576726626 -1.1072149184009854 0.9774213444130992
H -7.7410339269757955 -0.7880025857525172 0.10189006658231614
H -7.400458920070072 -2.0666160995828102 0.8639211679959762
O -4.144852043728117 -7.131284029873155 8.727056840893729
H -3.8693393816214767 -7.376383478196944 7.830961762037536
H -3.3378524126170186 -6.77963360444285 9.13209451566144
O 7.299566433424701 2.3943630522361117 0.7512968397491666
H 6.752653675503353 2.572815851059511 -0.028452088249431462
H 7.019354392409767 3.0649706956641505 1.392177909017199
O -5.0123866126015 4.789394246575703 -2.8839003704460024
H -5.407176872281366 4.924587565969514 -2.009354331547427
H -5.293334250534967 5.566384761007355 -3.390177082850238
O 3.888811892911095 -4.399378715147917 -6.099892933396548
H 3.4982065667779874 -4.353145115888221 -6.985475956266761
H 4.559771895110808 -3.700262497162515 -6.103229623065262
O -2.7350807384996445 -7.866708995442206 -2.8234130206001886
H -2.4106984864762637 -7.050939655751523 -3.2336128449454304
H -3.5998734580515324 -7.619550124786144 -2.462846814244034
O 8.014074263533315 8.223525400142698 1.7483692902507504
H 7.32189121034993 8.484864915898058 2.374110159373491
H 8.427580600261729 7.452697946946306 2.165261951716757
C 15.478225078135319 -12.27014063933953 4.45737558675633
O 15.281234974159833 -12.043470086960829 3.298654905608339
O 15.675215182110804 -12.49681119171823 5.616096267904318
O -5.949045744573886 -8.13324346448728 12.10784196129324
H -5.890042277153412 -7.927004006620885 11.162880991860462
H -6.430636528363787 -8.973677370291767 12.134358206179035
O -2.5002825788832137 8.983510961481436 -9.20680089104356
H -1.8781068781083337 8.76581355662574 -9.917063232847195
H -2.31927686110351 9.91586966310402 -9.014691219398165
O -4.5260030172618695 14.996135055592585 3.2915014150801705
H -4.624724524034745 15.921011946379569 3.0197954013655393
H -5.412792005963623 14.622655367231964 3.177132904556623
O -9.542431975082629 12.10487464169404 -3.6295720674900886
H -10.454578427266537 11.973915026354517 -3.92924820237313
H -9.00836899730336 11.6563678617693 -4.302312989708351
O -17.575477744123763 -2.6236735139873026 -9.960412851606922
H -17.024912678507302 -1.8851170788445506 -9.659780422331611
H -17.420454363843444 -2.6572111562470737 -10.91634429392803
O 5.791241140584272 3.994252503015474 -8.2873661564096
H 5.243832490553026 3.6943747218029857 -9.028570880562143
H 5.502350144983926 4.906926815898485 -8.13726773681577
O 1.0748880471156501 7.1301137737750375 -1.5357163613449303
H 1.1572655400217466 7.277928068199706 -0.5816030347813378
H 0.1279512669341769 6.972030221990121 -1.6671784064172928
O -16.762043510194857 -13.749622554703993 1.334154582055902
H -16.684925019489462 -14.638889829456334 0.957028861180393
H -17.091205803624256 -13.211260001282035 0.5987772027755192
O 0.9203901712253837 -8.603854255040545 -5.578960360799928
H 0.516179492301256 -7.761215350850898 -5.8349696596344955
H 0.33875004998028535 -8.939833262425076 -4.880551583467559
O -3.241980325984775 12.227720657423694 11.591016172302837
H -2.9255355018731644 13.124819302737606 11.40650587240357
H -2.912405620532094 11.705116178659157 10.844539771737471
O 6.636825087857963 14.06088849446479 -9.417756579075402
H 6.2390383083929795 13.56244664866069 -10.147337802335896
H 7.586032869690405 14.042291831924349 -9.611717130093105
O -1.6618923093354807 19.19599388579551 1.2279837832740546
H -2.3864776421078506 18.55814577483725 1.1437624096321217
H -2.1098530771413255 20.053724932385734 1.2788811950160976
O -0.34514625795651455 -10.669880131490991 -13.081919973391145
H -0.7211077247362736 -10.385868469605299 -13.92865352552531
H -0.3694549375478928 -11.637487349238583 -13.127825360431098
O -8.590054801036143 -14.399035146704328 7.1330491499648225
H -8.552236645407302 -14.37624265211032 6.165052431894448
H -7.69192288049277 -14.160922069843354 7.408045804906065
O 11.96977468086147 -0.9226523884678017 12.933334636103721
H 11.478805456350997 -0.2005144708324258 12.513294869656745
H 12.68445715516692 -1.1146829452964457 12.307782743400388
O 14.344191949442923 3.8988844466371635 4.853076227777467
H 14.408896960431488 4.757132058000023 4.407889013177903
H 13.417968818533389 3.849949311521973 5.1335722324181745
O -9.30885388969088 -8.700277690713063 -0.7968723328396616
H -8.939621573369783 -8.755015580048264 0.09735281607714574
H -8.631728393077807 -8.224517463588235 -1.300970748253389
O -13.839072071654737 -13.159463634434722 5.890400597541207
H -13.81625381827233 -12.910722132025054 4.954145103997078
H -14.566454766148578 -13.797307759720269 5.945457221934644
O -4.759248812618192 4.605155042163498 16.34059288787302
H -4.841091223091915 4.452456711535303 15.387202937972551
H -4.547825527118518 3.730626935465955 16.700402183534667
O -0.7818293886680316 11.25134188348064 -3.1962780612289947
H -0.7612057681730531 11.965453116032188 -2.5416123673657953
H -0.18417730720847292 11.557089717550078 -3.8950571363227637