194

C -5.0710522388059704 1.0783507462686561 0.47044029850746183
C -3.8153522388059704 0.1782507462686569 0.19534029850746193
C -4.11845223880597 -1.3219492537313435 0.5608402985074619
C -2.96945223880597 -2.3874492537313436 0.7034402985074619
C -2.52015223880597 0.7359507462686565 0.7384402985074618
C -2.20305223880597 0.7852507462686571 2.097440298507462
C -1.5755522388059702 1.205650746268656 -0.18965970149253808
C -0.9533522388059701 1.2695507462686564 2.508640298507462
H -2.91125223880597 0.4298507462686567 2.840840298507462
C -0.32655223880597006 1.6562507462686575 0.21554029850746192
H -1.7850522388059702 1.178550746268657 -1.2573597014925382
C 0.004447761194029898 1.6956507462686563 1.569740298507462
H -0.7158522388059702 1.2676507462686573 3.5705402985074617
H 0.3943477611940298 1.9193507462686572 -0.5551597014925382
C -1.76045223880597 -2.1592492537313435 -0.1734597014925381
C -0.5287522388059701 -1.936549253731343 0.464840298507462
C -1.8068522388059702 -2.121249253731343 -1.5681597014925381
C 0.6114477611940299 -1.614449253731343 -0.2582597014925381
H -0.4544522388059702 -1.954049253731343 1.5506402985074619
C -0.6479522388059701 -1.8270492537313432 -2.2998597014925384
H -2.74345223880597 -2.290549253731343 -2.092259701492538
C 0.5698477611940298 -1.5506492537313434 -1.6506597014925382
H 1.5072477611940298 -1.351949253731343 0.2991402985074618
H -0.7173522388059701 -1.7640492537313435 -3.3840597014925375
C 1.7791477611940298 -1.082849253731343 -2.4255597014925376
H 1.4739477611940297 -0.9102492537313429 -3.464259701492538
H 2.1252477611940295 -0.1337492537313434 -2.0010597014925384
C 1.3965477611940298 2.0964507462686566 1.997440298507462
H 1.51704776119403 1.8448507462686567 3.057640298507462
H 2.1256477611940294 1.5207507462686571 1.4165402985074618
C 3.94864776119403 -1.4275492537313434 -3.522959701492538
H 4.81734776119403 -2.087049253731343 -3.615159701492538
H 3.4305477611940303 -1.3641492537313429 -4.484459701492538
H 4.26984776119403 -0.441449253731343 -3.176459701492538
C 2.60904776119403 -3.4296492537313434 -2.8992597014925376
H 1.9825477611940296 -3.869549253731343 -2.119359701492538
H 2.06294776119403 -3.373349253731343 -3.845759701492538
H 3.5215477611940305 -4.019849253731343 -3.0234597014925377
C 3.7281477611940304 -2.060049253731343 -1.156659701492538
H 3.9048477611940298 -1.032549253731343 -0.8295597014925382
H 3.12924776119403 -2.623249253731343 -0.4404597014925382
H 4.68244776119403 -2.5769492537313434 -1.3005597014925383
C 3.1110477611940297 3.755250746268656 2.588740298507462
H 3.40124776119403 4.809350746268656 2.534540298507462
H 2.9823477611940303 3.461750746268656 3.634840298507462
H 3.86514776119403 3.1392507462686563 2.091540298507462
C 1.99744776119403 3.9574507462686572 0.40494029850746194
H 2.67914776119403 3.230350746268657 -0.04295970149253803
H 1.03214776119403 3.981150746268657 -0.10175970149253821
H 2.4399477611940297 4.958250746268657 0.368240298507462
C 0.7418477611940297 4.4992507462686575 2.475440298507462
H -0.18475223880597014 4.424250746268656 1.901240298507462
H 0.57844776119403 4.189650746268656 3.511940298507462
H 1.1210477611940297 5.524350746268658 2.4432402985074617
N 3.00114776119403 -2.025349253731343 -2.490159701492538
N 1.7831477611940298 3.586450746268657 1.862540298507462
C -3.55075223880597 -3.8435492537313434 0.6444402985074619
H -2.62515223880597 -2.2736492537313433 1.7424402985074618
H -4.67195223880597 -1.3478492537313436 1.5102402985074619
H -4.83415223880597 -1.6757492537313432 -0.1945597014925382
H -3.7169522388059697 0.17335074626865676 -0.900559701492538
H -3.9132522388059705 -4.043149253731343 -0.34225970149253815
H -4.35435223880597 -3.9354492537313432 1.3449402985074619
H -2.78115223880597 -4.545049253731343 0.8904402985074619
H -5.24235223880597 1.138950746268657 1.5249402985074618
H -5.92805223880597 0.6501507462686567 -0.006059701492538094
H -4.89895223880597 2.059650746268657 0.08004029850746197
C -0.7540988714551577 1.8386481529184655 -3.785336846242461
O -1.5658061033445083 1.5525367276448647 -4.651966594535489
O 0.20916945967666356 1.1387655241540864 -3.45230547791152
O -0.7703225187709339 2.87236068517168 -3.107233920182987
O 4.940583810750722 -6.162141157700717 3.0738986284786933
H 4.41834165411799 -5.986967913544831 2.276687977980661
H 5.726978645135423 -5.606480389022771 2.965334274728063
O 5.9772333073094615 -4.5346551331522 1.2576948344800922
H 5.980902906347927 -4.4810688247087365 0.2901813211427849
H 5.841569986029395 -3.618395903096716 1.542346254461431
O 0.8531242401863235 -4.835230057198045 -10.88768390467349
H 1.367955930799079 -5.655722694188521 -10.86108465872126
H 0.983435011838897 -4.44854886702889 -10.008787605750419
O 1.4528080034212745 -5.078135008970886 7.596285839310142
H 1.628101815695642 -5.267402168253094 6.662252981914021
H 2.324949268972016 -5.136248894600584 8.014561267133208
O 2.3656301534321225 -9.10200106923345 -1.5923678373699643
H 2.494347458405425 -9.490929714029848 -2.4705100363088652
H 2.356004677414184 -8.147363888986202 -1.7583110463331773
O -1.2295110920526144 -0.9690435166292448 8.539584413426855
H -1.3889780462236638 -0.9864389272976054 7.583951090904513
H -1.7752287436455927 -0.23288359784048895 8.85458086262712
O 2.11622823718237 4.477020728564569 -6.4034934419268055
H 2.285645445894076 5.062097184304069 -5.649868397735968
H 2.7733558738746247 4.747597855788916 -7.062229528397154
O 2.165866726531945 5.898130837459152 -2.0433352059218413
H 2.1756651727984737 5.854239767961906 -3.0112943586597813
H 3.07036839927898 5.661039552111362 -1.7891179942505062
O -5.071537453256221 -0.8622706533328844 -5.03218792679666
H -4.459931142239622 -1.242712296499587 -4.383983303726685
H -4.568124722055135 -0.8675044398872531 -5.860143344583733
O -5.588360177196845 1.8029198346337916 -2.8782150863192326
H -5.54755130638368 2.7655754918060986 -2.981152342340117
H -6.23242129045866 1.6707357892144148 -2.1664042934672842
O -1.1663643636320655 -2.275350265426995 -7.114653434345783
H -0.7600579388495715 -2.8262995830738387 -7.8004648482672385
H -0.9998237531146575 -1.3687793062506346 -7.413576945175129
O 7.252923074758582 -3.3730959832852614 -1.856200916520209
H 7.5439404267923225 -4.0543512266814705 -2.4808348501649022
H 7.224326702797423 -2.5640801990300632 -2.388777345435913
O 4.664445463571044 4.358729533363486 -3.585903445762897
H 5.2270170945764205 3.623860847922626 -3.8730419699047727
H 3.7832763441273785 3.9629251341136027 -3.5094717457077946
O -0.5874557776802749 8.905584768735595 0.7742698406320601
H -0.6311217718729358 8.320369250547719 0.0031774757864055925
H -1.1855770765918914 9.634043761405158 0.5494135485539238
O -1.4649280570677403 11.310155551048172 3.3378414205422837
H -1.4076804925875814 10.464622704091411 3.8076970132282555
H -0.5478043490744491 11.504115007102286 3.092432011709148
O -4.712392993333602 5.107103186540824 0.3401384057253525
H -4.746735216839688 5.117971431197637 -0.6281951369358212
H -5.571070664987901 4.741400303599047 0.6007070183985274
O 3.3472923784218853 -2.1761124544236123 -7.211332271897173
H 3.315976023220009 -2.122619681874924 -8.178350971862136
H 4.280678897409099 -2.3487989581763014 -7.016573647198285
O 7.716486034548003 1.1373985868649392 -4.507188245813686
H 8.140469509146552 1.3003359510346748 -5.363141974425672
H 6.799784709999297 0.9234014821946648 -4.737027026404317
O -7.732811708974765 0.16206802219838323 -4.967778361236331
H -7.064149684150931 0.7545102354342472 -5.343105788204682
H -8.099197847650496 0.6638516801386349 -4.224181493094467
O -4.092709612728943 8.256739266355249 -6.858861144287339
H -4.5525046521932815 7.485258650310614 -6.495029400686837
H -4.286139670316244 8.964503025007748 -6.225917845831734
C -11.22437367695014 7.617610702876277 -10.723126537517572
O -10.345334080775137 6.854752911375314 -11.002689831965824
O -12.103413273125145 8.38046849437724 -10.44356324306932
O -9.047218552017002 -8.29073359410442 -9.45784812172439
H -9.766461089172145 -8.807172125398058 -9.851483451746867
H -8.442963312987297 -8.129028531204991 -10.19790826998117
O 2.145692516391005 -8.345547960609007 12.905494863775004
H 1.8070074511438605 -8.594228648240403 12.032329530589063
H 3.1000270560217613 -8.49977404986622 12.838997915272241
O -3.396032178631378 -8.057198024017184 -19.851685829171238
H -3.1020904012563384 -7.806182883195022 -20.740256021948174
H -2.9666196798617506 -8.911753629200671 -19.695796227690234
O -4.340407675709197 10.082025210350553 0.0005914487908178501
H -5.142319166327237 9.761101524463202 0.43981042145847304
H -3.868313486408209 9.272362529492765 -0.24544790569219987
O 18.139458885033275 8.12616422424559 9.828416853292781
H 17.866416308221066 8.091548370909493 8.899322212879028
H 17.91160928720367 7.249301714921053 10.172158972926034
O 7.282891090257353 10.017294934553652 13.080278451862569
H 7.277718502420623 10.851595378890167 13.573110441302141
H 7.866808679121397 9.443094058604421 13.59825098759621
O -2.6192839728906825 -10.645055038898098 2.826819090691748
H -2.9497159560514574 -11.460104270014936 2.420030678540801
H -1.725090635199336 -10.54921705430253 2.4659932326423717
O 15.065908178778287 -9.172667354914436 -10.368830655447749
H 15.551300339422536 -9.116683801997468 -11.205626717273987
H 15.701274347727205 -8.858263351261634 -9.708208298770154
O 8.498273450105486 6.839242539960916 4.165650969152233
H 8.029864329456467 6.969440125280727 3.32743331163737
H 9.250792474092913 7.447186204169862 4.110139132709798
O -9.63905725287924 -6.074173716925829 0.8815897093516294
H -9.469619360748432 -6.117633553370878 -0.07149444235085245
H -10.113871365436026 -5.237396267449715 0.9969890285227794
O -8.39044714527219 2.5980294650037012 -17.679149425750403
H -7.882369993240226 2.99471441173558 -16.955639911286756
H -9.191965478150285 2.2658612449668127 -17.247646725923566
O -1.498541610102517 8.018704906161545 -20.89298724821329
H -2.2467219586013085 7.859795640776795 -21.487916965402732
H -0.9286257816014012 8.624401812331111 -21.39026900997467
O -8.367290922492028 -16.83383439536594 -8.648204841724183
H -7.55451288089187 -16.815219100771948 -8.120935761652355
H -9.02760123261427 -17.21032542502426 -8.047200063679044
O -9.850682406030561 -11.975145148356537 -3.6578782048191023
H -9.497633604717441 -11.186734886739028 -3.218864355188385
H -10.740062492063641 -12.071865106717329 -3.285574220791966
O 13.426444327793272 1.7038161959321 7.7910885781850245
H 13.007142511681918 1.7342308500101775 8.664145445017324
H 12.895319193408653 2.311705251014772 7.255048530580727
O -11.096789739275085 1.2285331148893466 1.4554914466428874
H -11.9839664028163 1.4263721077923994 1.7912661589947665
H -11.254083151430402 0.9019945078968309 0.5568295163621384
O -2.8511933612396207 11.166545385538685 -10.875092277899942
H -2.941697410047178 10.548720164585594 -11.616083755856137
H -2.6022058347622106 12.002762870929415 -11.29664591990231
O 8.917586474722697 -8.257885679580458 -11.372197693738325
H 9.295566683601747 -8.02807894510338 -12.234338739846638
H 7.970581766645521 -8.358509304786867 -11.55113598821434
O 3.4742417826647545 11.65209835695857 -6.400989980619741
H 4.172386554761565 12.190149333005683 -5.998420258374463
H 2.9771310579376955 11.30875717195677 -5.6433886987155315
O -5.102890932399286 -11.758371054984162 11.23892784397125
H -5.950339688811429 -12.076332599711336 11.584902435856586
H -4.446575182407203 -12.137224427962556 11.84281666022406