194

C -5.0710522388059704 1.0783507462686561 0.47044029850746183
C -3.8153522388059704 0.1782507462686569 0.19534029850746193
C -4.11845223880597 -1.3219492537313435 0.5608402985074619
C -2.96945223880597 -2.3874492537313436 0.7034402985074619
C -2.52015223880597 0.7359507462686565 0.7384402985074618
C -2.20305223880597 0.7852507462686571 2.097440298507462
C -1.5755522388059702 1.205650746268656 -0.18965970149253808
C -0.9533522388059701 1.2695507462686564 2.508640298507462
H -2.91125223880597 0.4298507462686567 2.840840298507462
C -0.32655223880597006 1.6562507462686575 0.21554029850746192
H -1.7850522388059702 1.178550746268657 -1.2573597014925382
C 0.004447761194029898 1.6956507462686563 1.569740298507462
H -0.7158522388059702 1.2676507462686573 3.5705402985074617
H 0.3943477611940298 1.9193507462686572 -0.5551597014925382
C -1.76045223880597 -2.1592492537313435 -0.1734597014925381
C -0.5287522388059701 -1.936549253731343 0.464840298507462
C -1.8068522388059702 -2.121249253731343 -1.5681597014925381
C 0.6114477611940299 -1.614449253731343 -0.2582597014925381
H -0.4544522388059702 -1.954049253731343 1.5506402985074619
C -0.6479522388059701 -1.8270492537313432 -2.2998597014925384
H -2.74345223880597 -2.290549253731343 -2.092259701492538
C 0.5698477611940298 -1.5506492537313434 -1.6506597014925382
H 1.5072477611940298 -1.351949253731343 0.2991402985074618
H -0.7173522388059701 -1.7640492537313435 -3.3840597014925375
C 1.7791477611940298 -1.082849253731343 -2.4255597014925376
H 1.4739477611940297 -0.9102492537313429 -3.464259701492538
H 2.1252477611940295 -0.1337492537313434 -2.0010597014925384
C 1.3965477611940298 2.0964507462686566 1.997440298507462
H 1.51704776119403 1.8448507462686567 3.057640298507462
H 2.1256477611940294 1.5207507462686571 1.4165402985074618
C 3.94864776119403 -1.4275492537313434 -3.522959701492538
H 4.81734776119403 -2.087049253731343 -3.615159701492538
H 3.4305477611940303 -1.3641492537313429 -4.484459701492538
H 4.26984776119403 -0.441449253731343 -3.176459701492538
C 2.60904776119403 -3.4296492537313434 -2.8992597014925376
H 1.9825477611940296 -3.869549253731343 -2.119359701492538
H 2.06294776119403 -3.373349253731343 -3.845759701492538
H 3.5215477611940305 -4.019849253731343 -3.0234597014925377
C 3.7281477611940304 -2.060049253731343 -1.156659701492538
H 3.9048477611940298 -1.032549253731343 -0.8295597014925382
H 3.12924776119403 -2.623249253731343 -0.4404597014925382
H 4.68244776119403 -2.5769492537313434 -1.3005597014925383
C 3.1110477611940297 3.755250746268656 2.588740298507462
H 3.40124776119403 4.809350746268656 2.534540298507462
H 2.9823477611940303 3.461750746268656 3.634840298507462
H 3.86514776119403 3.1392507462686563 2.091540298507462
C 1.99744776119403 3.9574507462686572 0.40494029850746194
H 2.67914776119403 3.230350746268657 -0.04295970149253803
H 1.03214776119403 3.981150746268657 -0.10175970149253821
H 2.4399477611940297 4.958250746268657 0.368240298507462
C 0.7418477611940297 4.4992507462686575 2.475440298507462
H -0.18475223880597014 4.424250746268656 1.901240298507462
H 0.57844776119403 4.189650746268656 3.511940298507462
H 1.1210477611940297 5.524350746268658 2.4432402985074617
N 3.00114776119403 -2.025349253731343 -2.490159701492538
N 1.7831477611940298 3.586450746268657 1.862540298507462
C -3.55075223880597 -3.8435492537313434 0.6444402985074619
H -2.62515223880597 -2.2736492537313433 1.7424402985074618
H -4.67195223880597 -1.3478492537313436 1.5102402985074619
H -4.83415223880597 -1.6757492537313432 -0.1945597014925382
H -3.7169522388059697 0.17335074626865676 -0.900559701492538
H -3.9132522388059705 -4.043149253731343 -0.34225970149253815
H -4.35435223880597 -3.9354492537313432 1.3449402985074619
H -2.78115223880597 -4.545049253731343 0.8904402985074619
H -5.24235223880597 1.138950746268657 1.5249402985074618
H -5.92805223880597 0.6501507462686567 -0.006059701492538094
H -4.89895223880597 2.059650746268657 0.08004029850746197
C 3.3923609745507015 0.6057530576386521 3.941452451722346
O 3.813242744916592 1.462530463102674 4.703401604527185
O 2.746829638125076 -0.39318987186831555 4.279141334246754
O 3.5468381928026433 0.6050662461368632 2.7147557892457974
O -2.8405360625508442 -1.7121033680034135 -4.724695589975149
H -3.779501467679904 -1.9491083864552907 -4.6909325021506
H -2.561390923101317 -1.9873068145949104 -5.610868822704431
O 6.827438979458323 5.3168183870139005 0.30601313358814086
H 7.006705942559706 5.490370734973676 -0.6303149581393568
H 7.584941660664506 4.786062993401065 0.5948908662300473
O 0.11974708646304055 5.5488192723637955 -9.902200940594243
H -0.32306296932812284 5.746730573750144 -9.063322088689041
H 1.0420015839487569 5.39297743179399 -9.648977902749774
O 1.124272032224742 7.7176750781745405 5.584219008532763
H 0.16595670239659643 7.576498061443238 5.5583706920842335
H 1.4564154861519323 6.973578998956586 6.1085888162122135
O -5.61102494055324 7.264103338978181 -0.6273169962467058
H -5.123245880225363 7.358772224927275 0.2045945058007239
H -5.330973971305501 6.400438365139979 -0.9658671578010287
O -0.9887304358253735 -5.66723631725287 -3.906744953665878
H -0.7120576264558953 -5.359288392315253 -4.782865715309052
H -0.9799814483676283 -4.86510709715593 -3.3631696472131862
O 2.5260502594356664 -4.207874413266754 3.1694596530467267
H 3.398065125998021 -3.88187798825597 2.900603259642313
H 2.6087865037204017 -5.171670012607117 3.112761320850727
O -2.2280355017862905 -7.408685060177191 -4.491920335283301
H -3.1538278357585297 -7.17960685677282 -4.663381957762679
H -2.0306975830381346 -8.093021146715358 -5.148962046885975
O -0.8935483704175082 -1.6512640865546482 -8.02860114690952
H -1.4799655522275077 -2.238376726029702 -7.528220297609052
H -0.5431885043444451 -1.044458056500728 -7.359275851977775
O -3.510308512701919 1.8705796649461028 -6.094958354743179
H -3.388492662147319 2.4289224045549447 -6.877506526154853
H -2.623921010929905 1.8139326489068952 -5.707569329890614
O 0.5869026698035957 -7.084302177050832 -3.0165641719879543
H 0.31897403189728224 -7.586874889991804 -3.800529904719188
H 1.5014437101566211 -7.363991317669148 -2.860517337895773
O -2.1965853408506475 6.338070197158623 -6.1766806484465535
H -2.182700848783818 6.314441683785588 -7.145296295200119
H -1.7185243216924886 7.151400468711286 -5.955516737200769
O -2.3253724525007193 3.441986258446233 -8.940889499212547
H -3.2745965354853523 3.518774344554947 -9.1198995185236
H -1.9070943590840326 3.7744001515374834 -9.749286916667366
O -5.856497419575736 3.9480311578722236 2.256802923226565
H -6.8197129575526985 3.8644458823569203 2.3215847572294765
H -5.522613020914539 3.1448393826905017 2.683846392806752
O 1.1895378159331123 3.305159139172332 -6.269001595085813
H 1.4322388785099176 4.171345712746591 -6.6292575747499605
H 1.5785478317285941 3.3034340720549875 -5.38151628475429
O 10.38523273191675 -0.1548409557955212 -2.80549761462105
H 10.741367074711318 -0.05202094633007198 -3.7007985318750234
H 9.50597946366015 0.2493559087927248 -2.8555029065121706
O -3.3234668080059775 -10.3103938613726 -1.3701356196001901
H -3.8994454288755263 -9.747058473481523 -0.8317405732347694
H -3.8745507236230416 -11.080650636357886 -1.5750086603777143
O 5.265296236920607 8.893859962179674 3.0706234970417414
H 4.898310384284928 8.19466380071499 3.6322403314211233
H 4.856161905056938 8.738543447592999 2.206072848966619
O 2.9997340052128987 8.948697500120707 -2.687426358547131
H 3.178297356046236 8.162917975501983 -2.149250713121641
H 3.5658542220761182 8.833199336153317 -3.465327392406131
O -5.735290554577404 8.891914673634199 -5.8664203032765325
H -5.859368545317919 8.69156521312403 -4.926509614547502
H -6.011555804071713 9.817199850421499 -5.946960962819039
C -9.909649067270696 4.349455507529719 -4.677722966525533
O -8.990910664754749 4.466507511888834 -5.436034797712386
O -10.828387469786643 4.232403503170603 -3.9194111353386796
O 5.6908960510563915 4.789235636203502 8.54515041648187
H 5.528593815818973 3.877857677819672 8.831534002444931
H 6.651707850717539 4.890425033817105 8.619738188552795
O -13.283629928590432 -0.6388343330720017 -4.951079151571175
H -12.549211727281643 -0.5825892789430789 -4.321449294931265
H -13.282810784803317 0.22533821025738865 -5.389447819086395
O 6.883358390210787 -3.208797378590349 9.624250003942
H 6.001612294356319 -3.2896800248384146 9.230614160958522
H 6.894361926002512 -3.887953924917293 10.315326882502799
O -2.272494002129233 11.293309719417993 -14.078365840592564
H -2.0535270592608175 10.35609640947316 -14.190847156788251
H -1.5930908041854588 11.755659734880606 -14.59179129976409
O 1.8029767454526118 -7.864436876138339 -7.262819858239428
H 2.3409660354605517 -7.9625075280237585 -8.062767999043269
H 2.3772311632055154 -8.189534169997144 -6.553238603190399
O -2.7778274321712333 14.761958233534251 17.82731393167364
H -2.750437349805117 14.688717804695544 18.79315707622223
H -2.963892697983371 15.699634922934507 17.668871237573743
O -11.775039835570631 -0.9541361915185345 17.42704753581064
H -11.847649472216347 -0.26018238901502144 18.09944869401688
H -11.975972093406916 -0.49722709049796165 16.5964921520671
O 13.23770693670726 -10.90112883192488 2.6747392516417534
H 13.397344924850579 -10.978350219915258 1.7221008486375529
H 13.435025820937321 -9.972877543653356 2.8706390935213806
O 5.3618308944571575 0.4116425698889308 6.685222360092277
H 5.607767431096791 0.30219207521634206 7.616083878290141
H 5.378149253224484 -0.4902322506866361 6.331220293037679
O -5.495464913658443 10.695900483710531 18.614235673500563
H -5.43443201101328 9.792143635183184 18.270046916515934
H -5.182642789875198 11.247129343104278 17.881261589549972
O 4.706041239056761 -1.8724186919078596 -11.553159549742324
H 4.260336045353418 -1.017221535687419 -11.647774882529019
H 5.1119764077308165 -1.8288359503891933 -10.674365416981253
O 1.5615810483685841 18.008687588855025 11.838656206387597
H 2.034311349743243 17.163669046836908 11.876565080121846
H 1.9078363893212682 18.50475230356894 12.595616563326809
O -1.4086440019307593 -6.95945927207519 -14.81360388965029
H -0.5588922183428753 -7.045154413288889 -15.271365406121014
H -1.9049755977478102 -7.743495180825123 -15.092717818153272
O 18.362202634215222 9.897282906087375 5.10870926101053
H 18.38383872683781 10.75517427641859 5.558733297154445
H 19.183557750665628 9.465656829447479 5.3880596627378
O -7.829209262777523 -3.0019321847549802 -1.1882803938529283
H -7.418904378413199 -2.9385812660754183 -2.063839597944368
H -7.787032354792771 -2.0971329568687014 -0.8440110081253572
O -13.150585016259372 -10.158704705444013 6.134194099828329
H -13.171024263924735 -10.048528252404203 5.171691765675086
H -12.898612365540801 -11.086100744396246 6.258324331945891
O -3.5670021807425285 11.36916713277253 -5.555763280861959
H -2.881355769817985 11.545329066288968 -6.217445477438264
H -3.9452450647303507 12.242267853337141 -5.372489178048354
O 4.76244913238752 0.9309439962871515 -21.074780972064914
H 4.211452349260271 1.04788615023259 -21.863256992317922
H 5.656197371401733 0.8110746785787528 -21.429474327276306
O -16.473104094556255 12.033673058281295 -6.186092388006605
H -16.66436736184359 11.153937219318173 -6.544492406324727
H -16.759376708321803 11.97727485703071 -5.262063612586955
O -16.933754735007376 -8.48676321975211 0.8148162020495118
H -17.544608789597444 -7.821475134353956 0.46379420228576773
H -17.358919824895818 -9.33085361909625 0.6010219355800759