194

C -5.0710522388059704 1.0783507462686561 0.47044029850746183
C -3.8153522388059704 0.1782507462686569 0.19534029850746193
C -4.11845223880597 -1.3219492537313435 0.5608402985074619
C -2.96945223880597 -2.3874492537313436 0.7034402985074619
C -2.52015223880597 0.7359507462686565 0.7384402985074618
C -2.20305223880597 0.7852507462686571 2.097440298507462
C -1.5755522388059702 1.205650746268656 -0.18965970149253808
C -0.9533522388059701 1.2695507462686564 2.508640298507462
H -2.91125223880597 0.4298507462686567 2.840840298507462
C -0.32655223880597006 1.6562507462686575 0.21554029850746192
H -1.7850522388059702 1.178550746268657 -1.2573597014925382
C 0.004447761194029898 1.6956507462686563 1.569740298507462
H -0.7158522388059702 1.2676507462686573 3.5705402985074617
H 0.3943477611940298 1.9193507462686572 -0.5551597014925382
C -1.76045223880597 -2.1592492537313435 -0.1734597014925381
C -0.5287522388059701 -1.936549253731343 0.464840298507462
C -1.8068522388059702 -2.121249253731343 -1.5681597014925381
C 0.6114477611940299 -1.614449253731343 -0.2582597014925381
H -0.4544522388059702 -1.954049253731343 1.5506402985074619
C -0.6479522388059701 -1.8270492537313432 -2.2998597014925384
H -2.74345223880597 -2.290549253731343 -2.092259701492538
C 0.5698477611940298 -1.5506492537313434 -1.6506597014925382
H 1.5072477611940298 -1.351949253731343 0.2991402985074618
H -0.7173522388059701 -1.7640492537313435 -3.3840597014925375
C 1.7791477611940298 -1.082849253731343 -2.4255597014925376
H 1.4739477611940297 -0.9102492537313429 -3.464259701492538
H 2.1252477611940295 -0.1337492537313434 -2.0010597014925384
C 1.3965477611940298 2.0964507462686566 1.997440298507462
H 1.51704776119403 1.8448507462686567 3.057640298507462
H 2.1256477611940294 1.5207507462686571 1.4165402985074618
C 3.94864776119403 -1.4275492537313434 -3.522959701492538
H 4.81734776119403 -2.087049253731343 -3.615159701492538
H 3.4305477611940303 -1.3641492537313429 -4.484459701492538
H 4.26984776119403 -0.441449253731343 -3.176459701492538
C 2.60904776119403 -3.4296492537313434 -2.8992597014925376
H 1.9825477611940296 -3.869549253731343 -2.119359701492538
H 2.06294776119403 -3.373349253731343 -3.845759701492538
H 3.5215477611940305 -4.019849253731343 -3.0234597014925377
C 3.7281477611940304 -2.060049253731343 -1.156659701492538
H 3.9048477611940298 -1.032549253731343 -0.8295597014925382
H 3.12924776119403 -2.623249253731343 -0.4404597014925382
H 4.68244776119403 -2.5769492537313434 -1.3005597014925383
C 3.1110477611940297 3.755250746268656 2.588740298507462
H 3.40124776119403 4.809350746268656 2.534540298507462
H 2.9823477611940303 3.461750746268656 3.634840298507462
H 3.86514776119403 3.1392507462686563 2.091540298507462
C 1.99744776119403 3.9574507462686572 0.40494029850746194
H 2.67914776119403 3.230350746268657 -0.04295970149253803
H 1.03214776119403 3.981150746268657 -0.10175970149253821
H 2.4399477611940297 4.958250746268657 0.368240298507462
C 0.7418477611940297 4.4992507462686575 2.475440298507462
H -0.18475223880597014 4.424250746268656 1.901240298507462
H 0.57844776119403 4.189650746268656 3.511940298507462
H 1.1210477611940297 5.524350746268658 2.4432402985074617
N 3.00114776119403 -2.025349253731343 -2.490159701492538
N 1.7831477611940298 3.586450746268657 1.862540298507462
C -3.55075223880597 -3.8435492537313434 0.6444402985074619
H -2.62515223880597 -2.2736492537313433 1.7424402985074618
H -4.67195223880597 -1.3478492537313436 1.5102402985074619
H -4.83415223880597 -1.6757492537313432 -0.1945597014925382
H -3.7169522388059697 0.17335074626865676 -0.900559701492538
H -3.9132522388059705 -4.043149253731343 -0.34225970149253815
H -4.35435223880597 -3.9354492537313432 1.3449402985074619
H -2.78115223880597 -4.545049253731343 0.8904402985074619
H -5.24235223880597 1.138950746268657 1.5249402985074618
H -5.92805223880597 0.6501507462686567 -0.006059701492538094
H -4.89895223880597 2.059650746268657 0.08004029850746197
C 2.296431225562374 -2.834031285273124 2.9246910055656317
O 2.9391374964752495 -2.799178932707761 1.8866691072176611
O 2.764572663691972 -3.0666416840471005 4.0451228242802575
O 1.0784066313596834 -2.642081551952866 3.015353964902138
O 4.2866677440134096 1.0461066978087914 7.250106108134719
H 5.039826613113461 0.9099943272795487 7.844406114347777
H 4.215440505437662 0.2091220167781369 6.767047862676796
O -4.374641882031325 4.700104685112254 4.030725638096412
H -3.7132445661565283 4.3501205186966745 3.4150698651907962
H -3.905956271721011 4.743942889537991 4.8777049500165885
O -6.703925987608048 -0.013194596278826909 -5.140924729262912
H -5.863375850511335 0.45201508353911324 -5.01434361799276
H -6.657520269779919 -0.7540454654162647 -4.518069655147626
O -1.9525621351788398 -6.686459160085047 3.3839173293819895
H -1.7683312921463055 -7.601610942893968 3.1240643559582186
H -2.1183636203062886 -6.742621925345644 4.336974282364241
O 4.287532531056342 -8.890139142036471 -7.523881244433782
H 4.307981720167483 -8.958620272966906 -8.490245317788741
H 4.79531689094972 -9.659008498783322 -7.223953085696802
O 6.990971957021792 -2.017052927537372 -7.787501101142283
H 7.007181876599475 -1.8030805409768735 -6.8425564396954375
H 7.869071309939427 -1.7544421410606692 -8.102046877670466
O 4.752908688686983 -8.882298356543009 -2.3144718012975645
H 4.386857115771175 -8.416926687878142 -3.0815459912361534
H 4.033384517008866 -9.465226383675356 -2.0290916585852368
O -1.0653633056610552 3.231876246601174 -5.982665663140233
H -0.5708413234794422 2.991357222814453 -5.184814821669316
H -0.9902569369665326 2.4494531635824575 -6.549353493291022
O 11.584030954974839 2.830953187438684 3.2386667577919432
H 11.82601683608294 3.7294594228017903 2.9683026787097604
H 10.976682078257284 2.965652882643168 3.9815969552948736
O 3.2217964826798964 4.824009785694629 -5.9699018831991735
H 3.078543463005817 5.218665126836234 -6.843224899592684
H 3.246341682468693 5.584889904989842 -5.370384642806014
O 10.500365526772837 -0.3541790226590624 5.234505946828217
H 10.528897949029894 -0.5515787573511535 4.286251443794544
H 9.554814104179885 -0.3594153223563552 5.446324342388947
O 1.0319254703888847 1.321660350836555 9.593273436314654
H 0.1756815809459914 1.6077019320504315 9.241145657648481
H 1.3941757737614071 2.1203781016770167 10.0053251521209
O 7.387921327815062 -0.4369342977920161 4.1799096908194215
H 7.567965217218807 0.37440298320411447 3.6816292765402934
H 7.887212673709511 -1.1185952340500722 3.705559119833468
O 0.6058540752747582 0.6615260383628094 5.2036924989234405
H -0.2556144395265125 0.8309751986448937 5.613724615940865
H 0.9446010064916559 1.5455305787544 4.996935555973063
O -8.441324263946528 1.8692623875093637 1.5057338014607757
H -7.686113367347206 1.3250067448842664 1.7748242212612424
H -8.939061011232823 1.2970925190169327 0.9025408669114614
O -6.354176514557983 -6.754888687492037 2.003143643894846
H -6.805197219282354 -7.539099467183638 1.6559245000887697
H -6.776783182934682 -6.016942133261351 1.538600393763491
O -0.5781200975576717 3.4782942775850523 5.988523820995462
H -0.6131951081903559 4.443434469958131 6.067527046215541
H 0.021234591859780383 3.206850287686809 6.6998985892585985
O -2.1210235335664 -9.918017398892477 1.1154228773435522
H -2.1688460474666336 -9.877054896880882 0.14846763665595286
H -1.1887898468167677 -9.740537095531966 1.3113898120755318
O 1.9232038317479083 -11.3439316435576 1.6791227981162802
H 2.8654352306695725 -11.53046431438219 1.8070794724289891
H 1.4814133681904855 -12.150864087996995 1.9834961884131053
O 0.7191139446674697 -6.248135100474887 -4.6823919511409535
H 0.835028704045992 -6.138203573010882 -3.726648165010145
H -0.22092807488911115 -6.461515301800129 -4.781143333158537
C 12.714315111812654 13.808105230329502 3.698975694118499
O 11.533101872054283 13.828391211245943 3.891698340680318
O 13.895528351571024 13.787819249413062 3.5062530475566795
O 7.023933533633931 -18.32219089510464 4.111202987174016
H 7.341634420334417 -17.96130921145177 3.2698957223215164
H 6.282832033224951 -17.744805350399407 4.348598107505081
O -0.3930815695666645 -2.2279337832349437 19.941079779034833
H 0.14610779826065556 -1.6517667973802008 20.5034620217604
H 0.0743794352845688 -2.230557330604917 19.09229519491312
O 18.9344360432841 1.8266649291372996 3.7732768839239412
H 19.605179994022954 1.8896897827515362 4.4697664942370805
H 18.87415872209829 2.7285456827478445 3.4240782368510496
O 10.92240298819586 -8.522267393720293 -7.142714440838292
H 10.569846790050933 -8.378090929852616 -8.03371647861161
H 11.881355160656447 -8.43881195106405 -7.254105034355751
O -9.417038766033112 -7.096340747829411 18.210666664156932
H -9.520542881366904 -7.3617871742302405 17.284495810739486
H -8.561011449928799 -7.4709639047619705 18.467253235654983
O -2.093019205384503 14.220567216936741 -6.381417040996467
H -1.63985059272796 13.851989747835349 -7.154563996415523
H -1.37151628442425 14.516458508828165 -5.806226791836549
O 5.601562803480732 16.151575913962215 1.0342571267119622
H 5.4833229656977105 16.58533673630501 1.8926499544205537
H 4.69684483387921 15.99291633987216 0.7255914834510703
O 8.723572120547244 -7.78727568383975 8.262867442044566
H 8.577194578258336 -7.088475690787002 8.918015930345454
H 7.933968725650486 -8.34437516327034 8.33448163816292
O -15.799652868364051 -0.8176445142738902 -7.695784008411218
H -15.49249788269779 0.027558178232009567 -7.334874628841861
H -16.40118701279433 -0.5619218478281733 -8.411133248468426
O 14.153909417370295 1.6944210964979436 5.784081330335031
H 14.401585690570773 2.5392524692627205 6.188906937462228
H 14.014040177040263 1.9141969268487324 4.850755489964627
O -8.934020898476943 -0.92100127746509 3.7208742766267573
H -8.968360772801901 -0.8477259193908683 2.755255898679009
H -8.492645439781601 -0.10543469323166965 4.001945078104441
O 2.52270897049592 4.530078409463002 -22.999562471293686
H 1.8466144652142367 3.899048481486508 -22.710313777561293
H 2.1848962119813793 5.388016115264632 -22.7015903627858
O -3.2841319306937184 -2.9023431521786778 12.6296748376767
H -3.3559747607569665 -2.401166081389193 13.45588758774981
H -3.8326912094944228 -2.4041730181279126 12.0052781853142
O -12.136341588739935 -6.366369943364085 4.729030704308894
H -11.527215400840012 -6.17019951511661 5.456663721148914
H -12.55154736841328 -5.512659121316506 4.534752714961941
O -7.958408289632919 -5.475277878963245 10.034272991118101
H -7.164813431420759 -5.88467596937755 9.658018075556402
H -8.688923129705003 -5.975989094075125 9.641083098323739
O -9.550366173190799 9.797556585629327 -10.908788310012966
H -8.904631400239879 9.142974905653574 -10.602983169208974
H -10.366640320082197 9.554772116140354 -10.446496018500683
O -6.3457415423239265 20.673306781033205 -7.516705118065717
H -5.887187505303031 21.52644994076919 -7.487682695225083
H -5.817606399048976 20.103883845135602 -6.937228859007849
O -6.684089701853818 -3.2410588683092674 -2.0975160912461916
H -6.246083369298969 -2.53814443937863 -2.6005360860207203
H -6.216040635801502 -4.046426520754145 -2.364489798683798
O 17.0445005788251 -6.623150009348344 -10.27039704468191
H 16.710940457668283 -6.054895402333912 -10.980883993246573
H 16.327086810400434 -6.629017755788887 -9.619056121104688
O -14.779576453125115 -11.876552743239637 7.149190137345704
H -14.852634719609949 -11.890238496411119 6.183041832602399
H -15.596968932544055 -11.444725547530435 7.439632475745742