194

C -5.0710522388059704 1.0783507462686561 0.47044029850746183
C -3.8153522388059704 0.1782507462686569 0.19534029850746193
C -4.11845223880597 -1.3219492537313435 0.5608402985074619
C -2.96945223880597 -2.3874492537313436 0.7034402985074619
C -2.52015223880597 0.7359507462686565 0.7384402985074618
C -2.20305223880597 0.7852507462686571 2.097440298507462
C -1.5755522388059702 1.205650746268656 -0.18965970149253808
C -0.9533522388059701 1.2695507462686564 2.508640298507462
H -2.91125223880597 0.4298507462686567 2.840840298507462
C -0.32655223880597006 1.6562507462686575 0.21554029850746192
H -1.7850522388059702 1.178550746268657 -1.2573597014925382
C 0.004447761194029898 1.6956507462686563 1.569740298507462
H -0.7158522388059702 1.2676507462686573 3.5705402985074617
H 0.3943477611940298 1.9193507462686572 -0.5551597014925382
C -1.76045223880597 -2.1592492537313435 -0.1734597014925381
C -0.5287522388059701 -1.936549253731343 0.464840298507462
C -1.8068522388059702 -2.121249253731343 -1.5681597014925381
C 0.6114477611940299 -1.614449253731343 -0.2582597014925381
H -0.4544522388059702 -1.954049253731343 1.5506402985074619
C -0.6479522388059701 -1.8270492537313432 -2.2998597014925384
H -2.74345223880597 -2.290549253731343 -2.092259701492538
C 0.5698477611940298 -1.5506492537313434 -1.6506597014925382
H 1.5072477611940298 -1.351949253731343 0.2991402985074618
H -0.7173522388059701 -1.7640492537313435 -3.3840597014925375
C 1.7791477611940298 -1.082849253731343 -2.4255597014925376
H 1.4739477611940297 -0.9102492537313429 -3.464259701492538
H 2.1252477611940295 -0.1337492537313434 -2.0010597014925384
C 1.3965477611940298 2.0964507462686566 1.997440298507462
H 1.51704776119403 1.8448507462686567 3.057640298507462
H 2.1256477611940294 1.5207507462686571 1.4165402985074618
C 3.94864776119403 -1.4275492537313434 -3.522959701492538
H 4.81734776119403 -2.087049253731343 -3.615159701492538
H 3.4305477611940303 -1.3641492537313429 -4.484459701492538
H 4.26984776119403 -0.441449253731343 -3.176459701492538
C 2.60904776119403 -3.4296492537313434 -2.8992597014925376
H 1.9825477611940296 -3.869549253731343 -2.119359701492538
H 2.06294776119403 -3.373349253731343 -3.845759701492538
H 3.5215477611940305 -4.019849253731343 -3.0234597014925377
C 3.7281477611940304 -2.060049253731343 -1.156659701492538
H 3.9048477611940298 -1.032549253731343 -0.8295597014925382
H 3.12924776119403 -2.623249253731343 -0.4404597014925382
H 4.68244776119403 -2.5769492537313434 -1.3005597014925383
C 3.1110477611940297 3.755250746268656 2.588740298507462
H 3.40124776119403 4.809350746268656 2.534540298507462
H 2.9823477611940303 3.461750746268656 3.634840298507462
H 3.86514776119403 3.1392507462686563 2.091540298507462
C 1.99744776119403 3.9574507462686572 0.40494029850746194
H 2.67914776119403 3.230350746268657 -0.04295970149253803
H 1.03214776119403 3.981150746268657 -0.10175970149253821
H 2.4399477611940297 4.958250746268657 0.368240298507462
C 0.7418477611940297 4.4992507462686575 2.475440298507462
H -0.18475223880597014 4.424250746268656 1.901240298507462
H 0.57844776119403 4.189650746268656 3.511940298507462
H 1.1210477611940297 5.524350746268658 2.4432402985074617
N 3.00114776119403 -2.025349253731343 -2.490159701492538
N 1.7831477611940298 3.586450746268657 1.862540298507462
C -3.55075223880597 -3.8435492537313434 0.6444402985074619
H -2.62515223880597 -2.2736492537313433 1.7424402985074618
H -4.67195223880597 -1.3478492537313436 1.5102402985074619
H -4.83415223880597 -1.6757492537313432 -0.1945597014925382
H -3.7169522388059697 0.17335074626865676 -0.900559701492538
H -3.9132522388059705 -4.043149253731343 -0.34225970149253815
H -4.35435223880597 -3.9354492537313432 1.3449402985074619
H -2.78115223880597 -4.545049253731343 0.8904402985074619
H -5.24235223880597 1.138950746268657 1.5249402985074618
H -5.92805223880597 0.6501507462686567 -0.006059701492538094
H -4.89895223880597 2.059650746268657 0.08004029850746197
C 3.260572384735374 -1.9083986541963074 2.2469444760038124
O 3.6078401511822573 -1.9795587883354113 3.4157544829323543
O 3.5167595500639566 -0.9703417160851942 1.4833681659453422
O 2.599207473795175 -2.76344277872233 1.6468241679900026
O -4.312723550553528 -9.054306838727236 3.766220217935922
H -3.6968994931876242 -8.681694347144271 4.414979047074865
H -4.11131628280224 -8.57357842878801 2.9493375747892663
O -1.8960116559221878 3.2039503022167537 -8.389102479497444
H -2.061652577679993 3.9642125045577274 -8.966624622476289
H -2.7734463301955987 2.814373305568305 -8.257572633587522
O 4.920292709746733 9.081217730392984 4.756588658578788
H 5.003389249971905 9.08892569640781 5.721991636180641
H 5.570064790366968 9.736266640392259 4.46049895417282
O -7.389856176209206 0.5027886683804548 -9.595448264665317
H -7.168301842149949 -0.242673166510464 -9.017375875875967
H -8.127208822955657 0.17287308921490974 -10.13063863197387
O -1.596338278090902 9.571160736384519 1.791929428531596
H -0.9517287114000808 8.84895038917562 1.7488240017841905
H -2.0050656532507505 9.468312842825378 2.66446950662852
O 10.219993686021503 -2.488039975433101 1.9330746549573758
H 11.051450487191005 -2.123877336679897 1.5939102151567344
H 10.501237811226455 -3.127945553463636 2.6041816043649257
O 2.512524212144903 1.566622442374443 -6.754637988553654
H 3.0062187162923903 1.4557139556347671 -7.581035230226012
H 1.6114261496099642 1.7717320803381766 -7.046038507445032
O -4.444608867255031 -5.4142304939295585 8.397506276212741
H -4.493372715050441 -5.376971540217319 7.430448256021368
H -4.819997921089898 -4.567937138294391 8.683570183004091
O -1.6763150469231656 10.993197326084372 -2.908533174965483
H -1.4068362036238096 11.77924293938113 -2.410054686231047
H -2.6445918359271072 11.020094137946774 -2.8824838815420963
O -5.081311604105045 5.942242427323029 -6.094365058550999
H -5.792730946059387 6.598550529326134 -6.048435198565012
H -4.97111422448175 5.651883836980073 -5.176481421678542
O -2.6892634028097913 3.930518821156878 9.176997092194732
H -2.938647300580003 4.7710042423274 9.589743122136566
H -2.0840609712863047 3.526122377845507 9.81664971496366
O -9.00118209418028 -3.64578466285761 -1.9531973571876842
H -8.228872814355496 -3.9724612149084066 -1.4676171233058577
H -9.489459195788452 -4.45009621730773 -2.1847796097960277
O 10.714636036936431 6.627858868837457 -1.5403785987218495
H 11.58020900234272 6.1922622208968985 -1.537856940396189
H 10.297801844369397 6.315510562262144 -2.3574769621925644
O 7.994098717039713 -3.744936830177308 -1.4596707357654335
H 7.980447713195985 -2.808814408404045 -1.7095823570386777
H 7.467766687379506 -4.17865608092343 -2.1480195938207003
O 12.84934697991861 1.122685277102378 0.3412107484802682
H 13.459244163151334 0.614790157879411 -0.2146987141611567
H 12.036438553518302 0.5952976560814882 0.3391780701243281
O 7.026800293435184 -3.3981889973058035 2.6055659637425075
H 6.482360685603611 -2.880245680437665 1.9937754842188116
H 6.396297397527776 -3.713588319501807 3.2703601500217427
O -1.2405762372693343 -9.093973521906825 -0.6363497458353244
H -1.189825420891785 -8.754752073286141 -1.5426171017147563
H -1.2144545188406304 -8.29671396714897 -0.08620721659982133
O 9.144561593321665 6.228300266398112 7.725971818537955
H 8.59884947615377 6.608062070697224 7.021027413587024
H 8.547491039564683 6.1878052031763 8.48809310021889
O -9.235543492022794 -0.9943349273843878 3.8582179749788654
H -9.640094085129494 -1.1834977109691098 4.718173564427239
H -8.335948042791188 -0.710664954603853 4.080076755658094
O 6.602047526484013 -1.168425734498336 5.687212666235203
H 7.055330257561714 -2.0045691662277303 5.501831210359662
H 6.372951003464109 -1.2296769357107853 6.626747134889879
C 12.884627913914736 -12.743039510549487 -10.421195111528421
O 13.54424204993864 -11.784390753941516 -10.140624246484611
O 12.225013777890831 -13.701688267157456 -10.701765976572231
O 9.953951011351544 9.51356054880197 -2.144856583675651
H 9.95476177329428 9.42890619653592 -3.1101546413798453
H 9.014202914188296 9.571474876697907 -1.9157684154905317
O 2.0625666412884525 2.6926877365589577 15.84919629151397
H 1.6491279376261552 1.9405225865714666 16.29895554084447
H 1.8851182920834186 3.442843716580308 16.436341957684313
O -2.0519422878278837 3.9074616081494313 5.285767819806917
H -2.4250744152456747 4.1481015307702345 4.424471006838399
H -2.5419055500114 4.457761312768559 5.91510729982274
O -2.2504239090976608 -11.908352193290836 6.69821755543105
H -2.655854432904399 -12.78687511941924 6.751046671764588
H -1.873500640079313 -11.771092431261266 7.580289293613443
O 6.902602666697049 -0.5565922469078401 -17.32218249277594
H 6.587426530217824 0.27142071142469426 -16.929721156173933
H 6.47879219441084 -0.5789319505062798 -18.193301064225132
O 1.3265115455565821 -14.74247081297793 -9.153780981902692
H 1.134076681792214 -14.843684086937273 -8.20948650808511
H 0.6043560603791409 -14.185612659965553 -9.481442998242361
O 3.360856495205022 3.53475250140011 -7.976308243111491
H 3.983304565832595 3.1568188210859365 -8.615598388160043
H 2.704650894377055 3.9867896820788635 -8.527687006781267
O -7.058099844610642 -2.883221178912592 -3.8244294171751787
H -6.806954040687492 -3.7677188599085745 -4.130300295789871
H -7.39689452960844 -2.4475650720632434 -4.620911596688389
O 0.43381104684183835 -16.606643991715977 14.03061419864978
H 0.5266682743246749 -16.751078668567573 14.98428265064291
H -0.23110415519950944 -17.257095817485343 13.759022334361452
O 1.7258308056024716 -3.562451363353111 11.650864623029264
H 0.7888347211531997 -3.4925615701521044 11.88776357075393
H 1.8770042874996264 -4.516401866857311 11.572845653956518
O 11.029834902768902 -8.849449151791724 2.164240408124311
H 11.258569527743342 -9.786223848113426 2.2596395515648675
H 10.06084997890656 -8.844027095427123 2.1633669481846955
O -2.340449281427647 20.11275386632597 -1.6124434533648058
H -2.2323173246621355 20.234743313102307 -0.6572505871324061
H -2.14388895602373 20.98598087884008 -1.9836584414684428
O 9.508696266921827 13.048761382773176 -2.281747830542523
H 9.454999021876528 13.754272858031825 -1.6196771990741645
H 9.829876056152532 13.498615433935004 -3.0776352722973304
O -0.5172269915556673 9.648894590038394 12.100654014536238
H -1.2385473716937891 9.004971913729964 12.03718864576565
H -0.2566852742346668 9.800031391179655 11.179655846689954
O -18.193030753864306 0.5468087572674367 -6.4808623645752235
H -18.583146384975265 -0.321214000608145 -6.663382618445765
H -18.062259858996136 0.9340625251616355 -7.359438164724035
O -15.625037210074883 -8.465708106187064 -8.049073027038071
H -15.722255029290144 -8.546955828148366 -9.009757605972867
H -16.446537962702887 -8.036702305199954 -7.766137556566392
O -0.16161660837140968 10.931144250437987 -13.152281561183958
H -0.4641151175932088 10.667942690828102 -12.270132510378192
H -0.22330211149404944 11.89812493272786 -13.142024705783086
O 9.93802563416774 -0.910418805799666 9.067208073197007
H 10.062230597873008 -0.1098909326860465 9.598899344762716
H 10.111019411479752 -0.6178744715440587 8.15976501172909
O 6.933832320059376 -5.2229426366118155 10.15717961453573
H 6.738659448239428 -4.273798645741999 10.15794877074362
H 6.060056245956012 -5.641584772610528 10.171879226467592
O -8.65837232255905 10.689311250414683 3.2149564847774568
H -7.7534905795460505 10.68085347381144 2.8684238685972603
H -9.209002937476589 10.520206001272053 2.4357445207215