194

C -5.0710522388059704 1.0783507462686561 0.47044029850746183
C -3.8153522388059704 0.1782507462686569 0.19534029850746193
C -4.11845223880597 -1.3219492537313435 0.5608402985074619
C -2.96945223880597 -2.3874492537313436 0.7034402985074619
C -2.52015223880597 0.7359507462686565 0.7384402985074618
C -2.20305223880597 0.7852507462686571 2.097440298507462
C -1.5755522388059702 1.205650746268656 -0.18965970149253808
C -0.9533522388059701 1.2695507462686564 2.508640298507462
H -2.91125223880597 0.4298507462686567 2.840840298507462
C -0.32655223880597006 1.6562507462686575 0.21554029850746192
H -1.7850522388059702 1.178550746268657 -1.2573597014925382
C 0.004447761194029898 1.6956507462686563 1.569740298507462
H -0.7158522388059702 1.2676507462686573 3.5705402985074617
H 0.3943477611940298 1.9193507462686572 -0.5551597014925382
C -1.76045223880597 -2.1592492537313435 -0.1734597014925381
C -0.5287522388059701 -1.936549253731343 0.464840298507462
C -1.8068522388059702 -2.121249253731343 -1.5681597014925381
C 0.6114477611940299 -1.614449253731343 -0.2582597014925381
H -0.4544522388059702 -1.954049253731343 1.5506402985074619
C -0.6479522388059701 -1.8270492537313432 -2.2998597014925384
H -2.74345223880597 -2.290549253731343 -2.092259701492538
C 0.5698477611940298 -1.5506492537313434 -1.6506597014925382
H 1.5072477611940298 -1.351949253731343 0.2991402985074618
H -0.7173522388059701 -1.7640492537313435 -3.3840597014925375
C 1.7791477611940298 -1.082849253731343 -2.4255597014925376
H 1.4739477611940297 -0.9102492537313429 -3.464259701492538
H 2.1252477611940295 -0.1337492537313434 -2.0010597014925384
C 1.3965477611940298 2.0964507462686566 1.997440298507462
H 1.51704776119403 1.8448507462686567 3.057640298507462
H 2.1256477611940294 1.5207507462686571 1.4165402985074618
C 3.94864776119403 -1.4275492537313434 -3.522959701492538
H 4.81734776119403 -2.087049253731343 -3.615159701492538
H 3.4305477611940303 -1.3641492537313429 -4.484459701492538
H 4.26984776119403 -0.441449253731343 -3.176459701492538
C 2.60904776119403 -3.4296492537313434 -2.8992597014925376
H 1.9825477611940296 -3.869549253731343 -2.119359701492538
H 2.06294776119403 -3.373349253731343 -3.845759701492538
H 3.5215477611940305 -4.019849253731343 -3.0234597014925377
C 3.7281477611940304 -2.060049253731343 -1.156659701492538
H 3.9048477611940298 -1.032549253731343 -0.8295597014925382
H 3.12924776119403 -2.623249253731343 -0.4404597014925382
H 4.68244776119403 -2.5769492537313434 -1.3005597014925383
C 3.1110477611940297 3.755250746268656 2.588740298507462
H 3.40124776119403 4.809350746268656 2.534540298507462
H 2.9823477611940303 3.461750746268656 3.634840298507462
H 3.86514776119403 3.1392507462686563 2.091540298507462
C 1.99744776119403 3.9574507462686572 0.40494029850746194
H 2.67914776119403 3.230350746268657 -0.04295970149253803
H 1.03214776119403 3.981150746268657 -0.10175970149253821
H 2.4399477611940297 4.958250746268657 0.368240298507462
C 0.7418477611940297 4.4992507462686575 2.475440298507462
H -0.18475223880597014 4.424250746268656 1.901240298507462
H 0.57844776119403 4.189650746268656 3.511940298507462
H 1.1210477611940297 5.524350746268658 2.4432402985074617
N 3.00114776119403 -2.025349253731343 -2.490159701492538
N 1.7831477611940298 3.586450746268657 1.862540298507462
C -3.55075223880597 -3.8435492537313434 0.6444402985074619
H -2.62515223880597 -2.2736492537313433 1.7424402985074618
H -4.67195223880597 -1.3478492537313436 1.5102402985074619
H -4.83415223880597 -1.6757492537313432 -0.1945597014925382
H -3.7169522388059697 0.17335074626865676 -0.900559701492538
H -3.9132522388059705 -4.043149253731343 -0.34225970149253815
H -4.35435223880597 -3.9354492537313432 1.3449402985074619
H -2.78115223880597 -4.545049253731343 0.8904402985074619
H -5.24235223880597 1.138950746268657 1.5249402985074618
H -5.92805223880597 0.6501507462686567 -0.006059701492538094
H -4.89895223880597 2.059650746268657 0.08004029850746197
C 3.2557541172323075 -0.4190965096900625 2.827640433536721
O 3.4585008337296497 -0.009593394392145349 1.6949549228538807
O 3.5969271602631547 0.15888904332862097 3.86598773541156
O 2.6780218556192095 -1.474877325878953 3.1108376906896384
O -6.1013860961257524 8.61230646157063 -5.828615896417426
H -5.740684872566839 7.8219362728882125 -6.257774315961098
H -5.764173374477364 8.560690640175364 -4.921650995420603
O -7.473547088349003 6.310094639839464 -2.400599446904292
H -7.18638570691823 6.4344998983302295 -1.4835230980790604
H -7.020025622119695 5.500682198568008 -2.680119971882688
O 4.552302609297877 6.433904874187265 -0.8587125090895389
H 4.702837583585546 6.649822247416065 -1.791282220346659
H 5.444702442352771 6.333413669155863 -0.49472624564689993
O 2.8411556237636635 -8.727964689602235 -6.824493528113063
H 2.7927389545239194 -8.69649315544788 -7.79177462767911
H 2.1308325807233635 -8.135756959572333 -6.535195890171103
O 1.0429393126621447 -10.62510616663737 -4.943324929076864
H 1.0508380640441581 -10.395257287011534 -4.00200964758965
H 0.1020554958083082 -10.63077919771326 -5.174987192298495
O -0.0849838935231613 3.3049838879662703 -7.807883882425258
H 0.5056071223054549 3.8049314379885706 -7.224598312443259
H 0.49850617281972703 2.98246031280845 -8.511076480684505
O -2.824203951765779 7.345996594880828 -1.2939954469810213
H -2.5336402992092566 8.184082932353352 -1.6840613537902498
H -3.7306942005898045 7.525392594953097 -1.0023544892178398
O 1.4237540387923169 7.5166947364258005 5.117330960542063
H 1.7001663550418 8.392933489436741 4.8094848365654395
H 2.110866014940944 6.922563863302702 4.77991788709186
O -3.131370820581999 -5.426604869180765 -8.962869398864537
H -3.012049492502295 -5.57179926076115 -8.012265187734112
H -2.2297852612735327 -5.30286326350608 -9.295725882309716
O -5.48755802356453 -8.37477821968369 1.2479135356407143
H -5.505137484593665 -7.4973895255946035 0.8370030844052043
H -6.385297374316856 -8.489049229355263 1.59427770636198
O 5.2100829480268445 4.429182886304234 6.142337186907009
H 4.877368708608097 5.2347032399589875 5.7187742616692985
H 5.77866262237938 4.757262750413956 6.855108328984823
O -7.04106322417022 -1.4818624371846472 5.880105770631168
H -6.900799711305224 -1.2876670195297804 4.941179978238273
H -7.813236659522062 -0.9465332564887292 6.117029383494828
O -7.531221036609497 -1.5321465615447658 2.3906794212081697
H -7.4158002887911545 -1.313110255565511 1.4538397846982614
H -6.654849205164227 -1.8375739877007933 2.6693341263558996
O 5.638498004357579 -5.6441332345262545 -5.389724028409639
H 5.709619526439759 -5.658792476540665 -6.356002555864471
H 5.1319041186278245 -6.443140322717784 -5.180171523626419
O 0.22990498661721315 2.204072189892605 11.424366691222538
H -0.16616930544836706 1.5344009614449212 10.8467569978706
H 1.1824154307246326 2.1094228717147625 11.273610912776881
O 1.8935371832770573 -4.771729205557079 5.994569943514873
H 2.2358512064329026 -5.039412404725965 5.128467079339046
H 0.9331478762898557 -4.865107034086523 5.90571666859623
O -7.097127792528858 -7.042166471487772 -0.7242743271802228
H -7.719434318456905 -7.108705547080454 -1.4640543594240225
H -7.301051854992289 -6.183892152500498 -0.3233477573256669
O -8.346103035845175 -2.902338947123526 -0.9340365273247819
H -9.182356981348455 -2.6638421752360166 -0.5065251411261955
H -8.618526129099227 -3.3968587505812193 -1.7215628865979555
O -9.314688544803312 -7.2392129918823205 -4.905511599699186
H -9.312137526556725 -7.340826430712157 -5.869168986043048
H -8.564894075459156 -7.7779580166632005 -4.611361984172046
O -0.30806665362980135 -5.55643715781228 1.6452028846058586
H -0.2293007719571296 -4.61125005453121 1.8436585032601756
H -0.5314243201308988 -5.957003567157231 2.4987952046390682
C -1.9256214809308716 5.31140751947751 -6.56360663615785
O -1.6594024674075358 5.750877890950901 -5.482490783561237
O -2.1918404944542083 4.871937148004118 -7.644722488754463
O -13.030702081507897 -4.665544086301737 2.5335179346260257
H -13.689173330710446 -3.993687884346593 2.765880183642611
H -12.364216309631145 -4.175423947076901 2.028997460004753
O -0.2665058289117379 5.883346682725978 8.429114896436303
H -0.4977250082573068 5.498948021709163 9.288034402217399
H -0.08320282338675788 6.813278224713908 8.630582709452334
O 6.270138812886063 -0.5783009672004462 8.317683896882146
H 6.553595433352724 0.34829092107486614 8.324552215163262
H 5.380893629297152 -0.548195496355089 7.933888888591128
O 8.959579850469224 23.96972512042775 0.31633005576230744
H 8.473808313753821 24.789230882668974 0.13911923027305662
H 9.777117796184712 24.269502815549078 0.7414500213285553
O -3.379277142384705 12.551205918774949 -9.694877038730784
H -3.305679518569691 12.653472986570037 -10.655653908515532
H -2.473996465580327 12.68305779158193 -9.375433891767358
O -5.848868046086565 1.6150329149955445 -3.7434764697528085
H -6.01525290539745 0.7401752672453568 -3.361498025773169
H -6.439364313335211 1.6515093653381656 -4.510904362936147
O 16.79995285758058 5.990942374725979 8.02374382249919
H 16.926394736770508 6.011045025960854 8.984251860727008
H 15.958592652675469 6.452291227739924 7.888717211326614
O -4.101238633408679 -1.3894884944351527 -7.77545078300799
H -4.261750783445587 -1.8518137661308556 -6.939114397489565
H -3.2057660893257136 -1.6624186729706538 -8.025650672572635
O 12.58549419003598 12.876864613873686 2.672003965537729
H 13.152195245456621 12.102388471039918 2.5378250742527593
H 12.369772741159693 12.848271023136736 3.6162542540542253
O -9.567238227690373 9.196045188400033 3.1473952835377563
H -9.442544691692119 8.26532460466181 3.38651465537164
H -9.024290136446645 9.677462425574673 3.7895843197770307
O -0.21079937527770376 -7.668824306490553 -4.847028869614183
H -0.47988095071759673 -7.296118990427052 -5.7000547836618125
H -0.5131625910440145 -7.0141807803789025 -4.199742006027753
O -15.500101115855298 -1.269897649287279 -4.663345384511042
H -15.744043683571846 -2.1155167197075135 -4.257897769772127
H -16.017065103516586 -0.6157880079153599 -4.169532913196637
O 12.817685398764402 3.800009356586692 -13.1888784483291
H 12.769979891701425 3.804293628571439 -12.221059670608073
H 11.90432050198697 3.9621196976829065 -13.468961912575775
O 11.751073371559404 -1.9448243077296539 1.6487443237008637
H 10.939240657435592 -1.867850508512379 2.1721657938493704
H 12.251946044957009 -1.1467464475576534 1.8749306151661465
O -5.4025867968191505 13.857698010228312 6.195190062470037
H -5.961480289079949 14.561062968707695 5.832032856301929
H -4.49992552399961 14.184641436232955 6.063764923915212
O -3.9898237881385175 -12.810196525457204 10.772348982560828
H -4.112603952073462 -11.967190996851551 11.234121726434278
H -3.029005440558107 -12.883321990165065 10.670159385907807
O -4.542771281225674 5.849175870715491 -12.113189871783927
H -4.714515020042196 4.971558916874126 -12.48636533642158
H -3.820835680452402 5.699010396339403 -11.48452361458418
O -12.27842754662368 -8.53393546849501 5.006473864093724
H -12.510378552391458 -8.59451460828311 5.945354184286797
H -12.537111387027998 -9.395151002999553 4.645430351284361
O -9.824666613776804 -10.413245192554717 10.888468302345679
H -9.95270853320963 -9.600122291514412 10.377191692699046
H -9.60605563594027 -10.098198237008692 11.778365262937486
O -15.189861390773245 -5.734925715536244 -1.3763125067931261
H -14.724911091304634 -5.801204588139463 -2.223894766500404
H -16.075324484696743 -5.424823319263444 -1.6187038379609184