194

C -5.0710522388059704 1.0783507462686561 0.47044029850746183
C -3.8153522388059704 0.1782507462686569 0.19534029850746193
C -4.11845223880597 -1.3219492537313435 0.5608402985074619
C -2.96945223880597 -2.3874492537313436 0.7034402985074619
C -2.52015223880597 0.7359507462686565 0.7384402985074618
C -2.20305223880597 0.7852507462686571 2.097440298507462
C -1.5755522388059702 1.205650746268656 -0.18965970149253808
C -0.9533522388059701 1.2695507462686564 2.508640298507462
H -2.91125223880597 0.4298507462686567 2.840840298507462
C -0.32655223880597006 1.6562507462686575 0.21554029850746192
H -1.7850522388059702 1.178550746268657 -1.2573597014925382
C 0.004447761194029898 1.6956507462686563 1.569740298507462
H -0.7158522388059702 1.2676507462686573 3.5705402985074617
H 0.3943477611940298 1.9193507462686572 -0.5551597014925382
C -1.76045223880597 -2.1592492537313435 -0.1734597014925381
C -0.5287522388059701 -1.936549253731343 0.464840298507462
C -1.8068522388059702 -2.121249253731343 -1.5681597014925381
C 0.6114477611940299 -1.614449253731343 -0.2582597014925381
H -0.4544522388059702 -1.954049253731343 1.5506402985074619
C -0.6479522388059701 -1.8270492537313432 -2.2998597014925384
H -2.74345223880597 -2.290549253731343 -2.092259701492538
C 0.5698477611940298 -1.5506492537313434 -1.6506597014925382
H 1.5072477611940298 -1.351949253731343 0.2991402985074618
H -0.7173522388059701 -1.7640492537313435 -3.3840597014925375
C 1.7791477611940298 -1.082849253731343 -2.4255597014925376
H 1.4739477611940297 -0.9102492537313429 -3.464259701492538
H 2.1252477611940295 -0.1337492537313434 -2.0010597014925384
C 1.3965477611940298 2.0964507462686566 1.997440298507462
H 1.51704776119403 1.8448507462686567 3.057640298507462
H 2.1256477611940294 1.5207507462686571 1.4165402985074618
C 3.94864776119403 -1.4275492537313434 -3.522959701492538
H 4.81734776119403 -2.087049253731343 -3.615159701492538
H 3.4305477611940303 -1.3641492537313429 -4.484459701492538
H 4.26984776119403 -0.441449253731343 -3.176459701492538
C 2.60904776119403 -3.4296492537313434 -2.8992597014925376
H 1.9825477611940296 -3.869549253731343 -2.119359701492538
H 2.06294776119403 -3.373349253731343 -3.845759701492538
H 3.5215477611940305 -4.019849253731343 -3.0234597014925377
C 3.7281477611940304 -2.060049253731343 -1.156659701492538
H 3.9048477611940298 -1.032549253731343 -0.8295597014925382
H 3.12924776119403 -2.623249253731343 -0.4404597014925382
H 4.68244776119403 -2.5769492537313434 -1.3005597014925383
C 3.1110477611940297 3.755250746268656 2.588740298507462
H 3.40124776119403 4.809350746268656 2.534540298507462
H 2.9823477611940303 3.461750746268656 3.634840298507462
H 3.86514776119403 3.1392507462686563 2.091540298507462
C 1.99744776119403 3.9574507462686572 0.40494029850746194
H 2.67914776119403 3.230350746268657 -0.04295970149253803
H 1.03214776119403 3.981150746268657 -0.10175970149253821
H 2.4399477611940297 4.958250746268657 0.368240298507462
C 0.7418477611940297 4.4992507462686575 2.475440298507462
H -0.18475223880597014 4.424250746268656 1.901240298507462
H 0.57844776119403 4.189650746268656 3.511940298507462
H 1.1210477611940297 5.524350746268658 2.4432402985074617
N 3.00114776119403 -2.025349253731343 -2.490159701492538
N 1.7831477611940298 3.586450746268657 1.862540298507462
C -3.55075223880597 -3.8435492537313434 0.6444402985074619
H -2.62515223880597 -2.2736492537313433 1.7424402985074618
H -4.67195223880597 -1.3478492537313436 1.5102402985074619
H -4.83415223880597 -1.6757492537313432 -0.1945597014925382
H -3.7169522388059697 0.17335074626865676 -0.900559701492538
H -3.9132522388059705 -4.043149253731343 -0.34225970149253815
H -4.35435223880597 -3.9354492537313432 1.3449402985074619
H -2.78115223880597 -4.545049253731343 0.8904402985074619
H -5.24235223880597 1.138950746268657 1.5249402985074618
H -5.92805223880597 0.6501507462686567 -0.006059701492538094
H -4.89895223880597 2.059650746268657 0.08004029850746197
C -0.6506925137075401 -4.614443389555781 -2.330139187875086
O -1.560373767706306 -4.467749580078757 -3.131847639236521
O -0.5915406461147416 -4.084317658713921 -1.2147472253078153
O 0.3515240375989235 -5.315731345369331 -2.510154664204853
O 4.131370188102727 -3.415944693513043 -8.440397326924874
H 4.425187246208846 -2.9549912686150197 -9.2404978414483
H 4.665840007344917 -3.0228185783864006 -7.734170865919161
O -5.282516114318307 -2.397189316684267 -3.779378921452572
H -6.0764060457964595 -2.149236126710133 -3.282161313981491
H -5.132417697886758 -1.6446827373380357 -4.3711273965037325
O 5.700683696062296 0.44770002575187995 8.276889607074773
H 4.882361032895071 0.9553569234643642 8.384592207098343
H 5.786575888971381 0.3429513701734024 7.317404226961158
O 6.558876963438317 -4.379043698912947 2.794046183965722
H 6.576293617494558 -4.473176874587567 1.8297832725671257
H 7.084820384161603 -3.582505193886077 2.9609948961723394
O -6.037199006591981 -7.675398186307092 -6.832081355859503
H -5.7882275590798615 -7.718168775130834 -5.896586165088651
H -6.461430781262145 -8.530125227650766 -7.000696392128795
O 8.486177784618398 -1.438362909296461 1.916935983713032
H 8.255369103849628 -1.4576561376862016 0.9760202164309211
H 9.43660505509264 -1.6268078187451804 1.9287030539408314
O -1.2773167455378553 -5.162683154131246 7.148811747294963
H -1.324237198058432 -5.2429161981253465 8.113347120771078
H -1.6964372892940491 -4.308715032469493 6.964316865829355
O -4.943783030043442 2.8840844825238223 -1.879600365192264
H -5.848347100931862 3.040546749816432 -2.1898434271153735
H -4.840906429518926 1.9220785666714804 -1.9336648380891215
O -6.711530259671742 -5.793675906907151 5.11516430585359
H -6.690922887803293 -5.742071999777238 4.1477555350159445
H -6.528947958252608 -4.886257826889558 5.401901250745032
O -8.575540329033188 -3.4294095959411908 -4.1277801990540794
H -8.318847374472266 -3.1370316923623958 -3.2403168220758207
H -8.796123075982376 -4.365723530297759 -4.011069392450421
O -5.219566082478799 8.654927192811453 -1.013408447310809
H -5.494836489776393 9.250374078611152 -1.7265960565397247
H -5.408301872192052 7.770357969915459 -1.361083634643026
O 1.8696845504436297 -9.718576698420247 3.4463011266283576
H 1.9410804228523775 -9.729541265928912 2.479993843947355
H 0.9582364783955395 -9.999883484002957 3.6168615225147986
O 6.817428136638117 -8.917321519636339 4.266214012507657
H 5.863442612041783 -8.786018062558387 4.374095326552467
H 6.931951427026071 -9.027171799104195 3.3102959844531865
O 3.674613332374258 -6.157732659151226 2.6777820746414025
H 3.1328973273731853 -5.971627565493597 1.8961964933130604
H 4.340991020890055 -5.454251820775738 2.6736070792085758
O -2.4473373190041827 0.9937623286468176 -9.326422034439734
H -1.733441874448857 0.6053241019850812 -8.79875130831307
H -3.143903010123297 0.320357576963229 -9.30956312979818
O -4.187998952985084 5.322828367488126 -6.745061484031901
H -4.950968113418192 5.504683762626876 -6.17605003213754
H -3.771349053354181 4.548677578367373 -6.337562574657565
O 2.363102998959395 4.74613369478114 -4.0164458564195815
H 1.4533710063880048 4.46028202116293 -3.84427187673113
H 2.652829231916693 5.125434387071273 -3.1731477839300273
O -9.2608434015043 4.876046374869608 5.2530603200654715
H -9.10137928208553 5.104131970022589 6.181238919690407
H -8.802249284005658 5.572065601329964 4.758883614733088
O 8.300786955710134 -1.5486280789773672 -4.772630840416337
H 7.845424991654635 -1.259543248252991 -3.9676197850658026
H 8.126888187805875 -2.5011368949956885 -4.810684989056868
O -5.926865507991684 7.150699214767229 -8.857272575314418
H -6.837866329293169 7.011876647424639 -9.156894262253854
H -5.7144043516483745 6.340089023130351 -8.370720092472448
C 11.997391313310825 -15.186737547869967 -3.7981053602303465
O 12.893686634735904 -15.850677759324835 -3.3637594730565654
O 11.101095991885742 -14.522797336415099 -4.2324512474041285
O 1.2148996835346766 14.25633940292363 -2.459054778616956
H 2.0915040985913604 14.575582962423153 -2.1971089710131606
H 1.2810993308001286 13.293447876863757 -2.372918491002377
O -7.616926435532531 11.000227136647519 1.841377953551918
H -7.030342079855908 10.744814278288523 2.5691488119684456
H -8.487459465677688 10.676633731083527 2.117822334217885
O -7.528466458054888 7.759827097345362 -2.4369833180713982
H -7.705353503084796 7.672855550788454 -1.4882397909313765
H -8.202440239579754 8.384482725696843 -2.7444351550896333
O -15.59285122920776 -12.514674408470915 6.305798903422287
H -15.642738735834648 -12.087001565470754 5.437712195228505
H -16.388418523312062 -13.066770641191294 6.340789968960847
O -10.964404727842648 9.760329707797446 -2.386969719636056
H -10.823669536229263 9.920279853429555 -3.332261692337513
H -11.25119665005869 10.620130933838345 -2.044253817830789
O -18.619217523920412 5.412988872753139 0.8106469085634274
H -19.276378349192832 5.1395959279762415 0.15310352263859528
H -19.07491289599056 6.094028847834016 1.3278395462872101
O -2.766308526818756 -6.7452874751323115 16.41172219773367
H -2.3769559135208045 -6.801524253556765 17.297278138468357
H -2.043375325031656 -6.412569933012296 15.858885361750879
O 0.5044053546566099 7.634565920423691 -17.377881629479756
H 0.5209949546745769 7.809221524415868 -16.424892877150864
H 0.8552993222636309 6.734808867962727 -17.457081467508356
O -14.369835034013986 7.822551465781225 8.364065268181854
H -13.97375340602747 7.488055802096074 7.545408226529257
H -13.996057794405832 7.254210326202495 9.054167339265007
O 11.47620185419651 12.796557848260985 -10.286158485451434
H 11.70058844053045 12.480781309256676 -11.174360711404432
H 11.09523428951322 12.019252836291718 -9.850701739807578
O 5.486095069893995 -4.382823531101398 19.678481740112804
H 5.256574286984503 -4.850234161138826 18.861282333578128
H 5.9718377181363 -3.6019981765905014 19.37298576676539
O -1.7961550384773286 -9.741041634780894 17.856217771330954
H -2.288782912749298 -9.978860043741431 17.056388077740024
H -0.9060942958601927 -10.088500416322884 17.694891351048387
O 19.481585287581503 -8.05975317273085 -0.8863435906317711
H 20.150551563238075 -7.415952292154131 -0.608905480230888
H 18.6469319606523 -7.571391459892365 -0.8245487236971156
O 13.690245530566777 7.125280057502203 4.8040267378803065
H 13.625789675124269 6.786132207584507 3.898603336650043
H 12.938911617736787 6.717864702611152 5.260614105566468
O 13.501629149115178 -7.700387928783327 -3.0991312034164036
H 13.591962005417866 -6.795458567244868 -2.7646014101276766
H 13.78845122786136 -7.63825854602532 -4.022621852660794
O -2.284032076828214 -14.850096049137553 -13.369351628010495
H -2.684683424757296 -13.983034191263826 -13.206104609896315
H -2.6182667452168786 -15.101546428464012 -14.243435055083504
O 12.308803813314949 2.6160068555060074 -1.702432074194662
H 11.843161649448051 2.9020991558896894 -2.5026170076884937
H 11.65261852565734 2.7257351409633106 -0.9979162717229912
O 6.004827423275018 -2.7413484689382868 -14.75136629847707
H 5.9011290844020365 -2.455968645304997 -13.831163946992346
H 5.343017731068523 -3.4414696617789553 -14.855290265572737
O 14.667153502050517 -9.109285999081001 0.45833926758660315
H 13.967518296529978 -9.60735398366263 0.00955622553730251
H 15.182434027770839 -8.724582535681302 -0.26654083930119743
O 4.194361876754262 6.72206638035359 -0.7708848865178011
H 4.791810812771867 7.4722846454094265 -0.6323400182330279
H 4.171740157086735 6.278702544647075 0.09043892674112064