194

C -5.0710522388059704 1.0783507462686561 0.47044029850746183
C -3.8153522388059704 0.1782507462686569 0.19534029850746193
C -4.11845223880597 -1.3219492537313435 0.5608402985074619
C -2.96945223880597 -2.3874492537313436 0.7034402985074619
C -2.52015223880597 0.7359507462686565 0.7384402985074618
C -2.20305223880597 0.7852507462686571 2.097440298507462
C -1.5755522388059702 1.205650746268656 -0.18965970149253808
C -0.9533522388059701 1.2695507462686564 2.508640298507462
H -2.91125223880597 0.4298507462686567 2.840840298507462
C -0.32655223880597006 1.6562507462686575 0.21554029850746192
H -1.7850522388059702 1.178550746268657 -1.2573597014925382
C 0.004447761194029898 1.6956507462686563 1.569740298507462
H -0.7158522388059702 1.2676507462686573 3.5705402985074617
H 0.3943477611940298 1.9193507462686572 -0.5551597014925382
C -1.76045223880597 -2.1592492537313435 -0.1734597014925381
C -0.5287522388059701 -1.936549253731343 0.464840298507462
C -1.8068522388059702 -2.121249253731343 -1.5681597014925381
C 0.6114477611940299 -1.614449253731343 -0.2582597014925381
H -0.4544522388059702 -1.954049253731343 1.5506402985074619
C -0.6479522388059701 -1.8270492537313432 -2.2998597014925384
H -2.74345223880597 -2.290549253731343 -2.092259701492538
C 0.5698477611940298 -1.5506492537313434 -1.6506597014925382
H 1.5072477611940298 -1.351949253731343 0.2991402985074618
H -0.7173522388059701 -1.7640492537313435 -3.3840597014925375
C 1.7791477611940298 -1.082849253731343 -2.4255597014925376
H 1.4739477611940297 -0.9102492537313429 -3.464259701492538
H 2.1252477611940295 -0.1337492537313434 -2.0010597014925384
C 1.3965477611940298 2.0964507462686566 1.997440298507462
H 1.51704776119403 1.8448507462686567 3.057640298507462
H 2.1256477611940294 1.5207507462686571 1.4165402985074618
C 3.94864776119403 -1.4275492537313434 -3.522959701492538
H 4.81734776119403 -2.087049253731343 -3.615159701492538
H 3.4305477611940303 -1.3641492537313429 -4.484459701492538
H 4.26984776119403 -0.441449253731343 -3.176459701492538
C 2.60904776119403 -3.4296492537313434 -2.8992597014925376
H 1.9825477611940296 -3.869549253731343 -2.119359701492538
H 2.06294776119403 -3.373349253731343 -3.845759701492538
H 3.5215477611940305 -4.019849253731343 -3.0234597014925377
C 3.7281477611940304 -2.060049253731343 -1.156659701492538
H 3.9048477611940298 -1.032549253731343 -0.8295597014925382
H 3.12924776119403 -2.623249253731343 -0.4404597014925382
H 4.68244776119403 -2.5769492537313434 -1.3005597014925383
C 3.1110477611940297 3.755250746268656 2.588740298507462
H 3.40124776119403 4.809350746268656 2.534540298507462
H 2.9823477611940303 3.461750746268656 3.634840298507462
H 3.86514776119403 3.1392507462686563 2.091540298507462
C 1.99744776119403 3.9574507462686572 0.40494029850746194
H 2.67914776119403 3.230350746268657 -0.04295970149253803
H 1.03214776119403 3.981150746268657 -0.10175970149253821
H 2.4399477611940297 4.958250746268657 0.368240298507462
C 0.7418477611940297 4.4992507462686575 2.475440298507462
H -0.18475223880597014 4.424250746268656 1.901240298507462
H 0.57844776119403 4.189650746268656 3.511940298507462
H 1.1210477611940297 5.524350746268658 2.4432402985074617
N 3.00114776119403 -2.025349253731343 -2.490159701492538
N 1.7831477611940298 3.586450746268657 1.862540298507462
C -3.55075223880597 -3.8435492537313434 0.6444402985074619
H -2.62515223880597 -2.2736492537313433 1.7424402985074618
H -4.67195223880597 -1.3478492537313436 1.5102402985074619
H -4.83415223880597 -1.6757492537313432 -0.1945597014925382
H -3.7169522388059697 0.17335074626865676 -0.900559701492538
H -3.9132522388059705 -4.043149253731343 -0.34225970149253815
H -4.35435223880597 -3.9354492537313432 1.3449402985074619
H -2.78115223880597 -4.545049253731343 0.8904402985074619
H -5.24235223880597 1.138950746268657 1.5249402985074618
H -5.92805223880597 0.6501507462686567 -0.006059701492538094
H -4.89895223880597 2.059650746268657 0.08004029850746197
C 3.924352883426932 1.9322342111985253 -2.830541039641359
O 3.771077750193938 1.505182317809991 -3.9645202777606796
O 3.687118109679613 1.3019527598213962 -1.7936724759964782
O 4.3404245206869385 3.0607866705144016 -2.5443555689412136
O 5.3451932763992644 -8.51639979719363 4.465449004927445
H 5.690213259668465 -8.785118915376783 3.6007417691720183
H 5.88904081662177 -9.009470564714123 5.097962258156722
O -6.195873132569759 -6.107474724847065 7.564287150403901
H -6.062440342534223 -6.123806729904482 6.604653724009147
H -6.9450931118938755 -5.505172805063231 7.686204189025571
O 0.6393582160885258 1.2486645866797619 -8.417781733022249
H 0.9483607083574381 0.5884564036673599 -9.056225130478175
H 1.3393476132998516 1.91872092714559 -8.416646526756328
O -1.6765798706002755 -7.611281950828593 2.2431581499751543
H -2.0222590300296313 -7.884728561733416 1.3801979964217697
H -2.4448434525840477 -7.227743929295185 2.692192223220938
O -8.012338952253385 1.2719195284639246 2.0820558855675158
H -7.491483639266215 0.4552712192284667 2.054439968854442
H -7.450619733297634 1.8913486382182523 2.5716894642206753
O 3.26838949699717 -5.265398263844687 9.505290598871648
H 3.6752965885098963 -4.908184174659056 8.701678708551492
H 2.7620971318246736 -4.5203237987955305 9.86235365604748
O 7.6060203281840035 -3.89465125471928 5.270460876875603
H 7.550774524762011 -3.207504553025506 4.5894728678360694
H 8.551731986172024 -4.100033057475965 5.319549769121851
O 2.268247082732842 -0.9515567086611698 6.161611787391374
H 2.2460431231261353 -0.6971428183006555 5.226866948695052
H 2.494111064527872 -1.8936717383693598 6.142462979970811
O 4.3278759950360195 -10.24917449426065 3.6319181857202745
H 4.625038242069467 -10.519215559115025 4.513813745937215
H 3.470117646487825 -9.828040263023754 3.792724028513312
O 9.130652450578257 -0.21701471086940582 -7.088841602029204
H 8.277126102656698 -0.31248258871867307 -7.537557564083867
H 9.761199052652179 -0.08046623112744555 -7.811840522908891
O -2.9960765729309298 2.7902219278467837 -2.9822158840603534
H -2.659486481530873 3.015081690970364 -2.1018111168087734
H -2.8279961616462743 3.5869136859539865 -3.5075663977237883
O -6.95764489555252 0.8334045610336569 6.775362167074024
H -6.922379184111879 0.7738029568778702 5.808836774092214
H -7.428218354737269 1.6639929641187083 6.941631432037586
O -5.743162535251222 -4.373073407119748 -3.928808710827401
H -5.481674741236441 -4.598318483343748 -4.83426779113867
H -6.628012113164457 -4.757518136579225 -3.8382249443038217
O 0.7470933724936331 -5.909896157971919 3.513087489859778
H -0.15116375240564306 -5.968576821898616 3.8717768737963665
H 0.8790586338708573 -6.7624207433723384 3.0717838014801293
O 2.226754240052313 1.7228012527645498 -10.99952512071285
H 2.8080086009809024 1.3219682536623436 -11.663184394461231
H 1.706062763149757 2.366718987319258 -11.502727149034445
O 1.6323791922271793 1.2495632276323814 6.16542034762517
H 1.9990281135818668 2.126799878272638 6.3524812578734355
H 0.8980041960334728 1.1643826696711208 6.791838404365954
O 7.605747852528952 6.919845893362828 4.888658701440707
H 7.417121140389499 5.970762253995857 4.939918489319764
H 8.555081182357293 6.959874504961189 4.698590599354783
O 6.039148139887408 2.3142875859309133 8.15608326327114
H 5.831400361928922 2.4733709469803524 9.089089534359672
H 6.384571668155212 3.164485917510854 7.844944504197786
O 7.2934524581919735 5.7499206692199625 -0.1347405695461225
H 7.673225400074515 6.218957634688676 0.6233782829682987
H 6.341429904362163 5.913494766501559 -0.058199626268193014
O 0.30611864704041736 -1.0494767323731669 8.535793349895442
H 0.3619632718332073 -1.8138339397573233 9.128757762235379
H 0.21384420143751992 -0.2941142450580889 9.135689077289678
C 16.07619105030178 9.182010916609425 8.845719690418763
O 16.052742405181114 9.06561423361461 10.036820118816726
O 16.099639695422447 9.29840759960424 7.6546192620208
O -13.15648870522135 -8.476453758933513 4.841694755491734
H -13.082174107591406 -7.7962047200836935 5.527774883919163
H -13.646689711132584 -9.192021054854731 5.2736998053599144
O -6.0270070601466985 4.075838791443079 1.5866239398234177
H -5.537487153080822 3.3439849866025924 1.991256644664139
H -5.787567655683658 4.027451393700138 0.6489196284170713
O -2.8807279831303907 -8.149994152523044 -12.542463065563618
H -3.065727085912094 -8.211440328707846 -11.59327022093075
H -3.657906209086559 -7.697739482614665 -12.903602461013191
O -2.397469015987644 -8.93164184707761 9.879712262150605
H -2.005277467710906 -9.366044020307633 9.107411868357277
H -2.4304788879300663 -7.99587846505214 9.630274523396832
O 14.988531703608285 2.0396346288069562 -5.890219529090464
H 14.760278638725877 1.661293372360098 -6.752614907639074
H 15.441717232243018 1.3171529574958223 -5.430214033954234
O 3.999999514778262 -2.481234735773743 14.20531154947829
H 4.275817689196203 -2.7386502581245433 13.312770827486505
H 3.291615001221831 -3.1063129333446637 14.420789093957776
O -7.689362570661185 -3.3582367972868656 -12.544662889860415
H -7.794970629680692 -2.513610102334825 -12.081607773330509
H -8.49028231693759 -3.8528894528381303 -12.314862422757715
O -19.741296041421577 -1.985081986121986 -5.3681366969031075
H -20.097989013514248 -1.5297961569351042 -6.145601997930308
H -19.730187657586512 -1.3016480615005968 -4.681291285776864
O 15.313996147435416 9.90380422113059 -0.7866905972661078
H 15.73272943510424 10.777567285206153 -0.7996481647594784
H 14.739041878430855 9.908202279073334 -1.5666714880190575
O -13.486913602404243 3.3180152056271845 -3.8071977524799028
H -14.217890578035497 3.852268558897871 -3.4619248567640515
H -13.460141120265249 2.5492720719332502 -3.2178937792211544
O 5.314213885179439 -8.434763014817495 -8.302616564457898
H 5.287894982417761 -8.493237548061762 -9.269495771608042
H 4.429673765027632 -8.718455313329844 -8.026809748177726
O -7.3732476961526805 -8.922741606042939 -16.0529895074494
H -8.102346748725422 -9.319066732298097 -15.552681279717369
H -6.6875800986932035 -8.769452744094096 -15.385663189298695
O 3.7535196192709304 7.516051425585065 -7.165469483503509
H 4.031514935907251 7.248278246387258 -6.276659332047883
H 2.7989343529918225 7.349667659009084 -7.17220416410715
O 5.638822289853395 -4.765164958032336 19.289568102720814
H 6.076935010234113 -4.027586323464327 19.740125933603153
H 5.6337877882049625 -4.500297301810438 18.357483491335845
O -1.875139353358421 18.661971783860558 6.531808301983208
H -2.189458837981482 18.009595408880283 5.887932783071444
H -2.407527855121306 18.48611873306674 7.322124777844098
O -11.835313340892089 6.2221495955040265 -2.7888344071879403
H -11.66385496089198 5.846435935408771 -3.6654236076949767
H -11.751693099852695 7.17810035152893 -2.9234737463274643
O 10.968947131543551 -5.324532378832892 -8.592299959196437
H 11.246434293946727 -5.376376683918519 -7.665326173358011
H 10.015172836585435 -5.492724291612651 -8.560867188834354
O 16.533698994648578 12.847205479457214 1.6114218585684679
H 16.692368170864288 12.442860060061138 0.7452254424869635
H 17.095676130707254 12.337449381109128 2.2141592500120604
O 0.9862715976157648 11.101436315531394 -7.407504182780794
H 0.7222788209942381 10.826578150667235 -8.298418409852717
H 1.2531675663680808 12.026451148074168 -7.517395245837024
O -16.071289107757195 3.7198246054275 1.440102821462931
H -15.305406871302841 3.89656187210235 0.8733968171256041
H -16.51582390081944 4.578219717014576 1.5072488895572018