194

C -5.0710522388059704 1.0783507462686561 0.47044029850746183
C -3.8153522388059704 0.1782507462686569 0.19534029850746193
C -4.11845223880597 -1.3219492537313435 0.5608402985074619
C -2.96945223880597 -2.3874492537313436 0.7034402985074619
C -2.52015223880597 0.7359507462686565 0.7384402985074618
C -2.20305223880597 0.7852507462686571 2.097440298507462
C -1.5755522388059702 1.205650746268656 -0.18965970149253808
C -0.9533522388059701 1.2695507462686564 2.508640298507462
H -2.91125223880597 0.4298507462686567 2.840840298507462
C -0.32655223880597006 1.6562507462686575 0.21554029850746192
H -1.7850522388059702 1.178550746268657 -1.2573597014925382
C 0.004447761194029898 1.6956507462686563 1.569740298507462
H -0.7158522388059702 1.2676507462686573 3.5705402985074617
H 0.3943477611940298 1.9193507462686572 -0.5551597014925382
C -1.76045223880597 -2.1592492537313435 -0.1734597014925381
C -0.5287522388059701 -1.936549253731343 0.464840298507462
C -1.8068522388059702 -2.121249253731343 -1.5681597014925381
C 0.6114477611940299 -1.614449253731343 -0.2582597014925381
H -0.4544522388059702 -1.954049253731343 1.5506402985074619
C -0.6479522388059701 -1.8270492537313432 -2.2998597014925384
H -2.74345223880597 -2.290549253731343 -2.092259701492538
C 0.5698477611940298 -1.5506492537313434 -1.6506597014925382
H 1.5072477611940298 -1.351949253731343 0.2991402985074618
H -0.7173522388059701 -1.7640492537313435 -3.3840597014925375
C 1.7791477611940298 -1.082849253731343 -2.4255597014925376
H 1.4739477611940297 -0.9102492537313429 -3.464259701492538
H 2.1252477611940295 -0.1337492537313434 -2.0010597014925384
C 1.3965477611940298 2.0964507462686566 1.997440298507462
H 1.51704776119403 1.8448507462686567 3.057640298507462
H 2.1256477611940294 1.5207507462686571 1.4165402985074618
C 3.94864776119403 -1.4275492537313434 -3.522959701492538
H 4.81734776119403 -2.087049253731343 -3.615159701492538
H 3.4305477611940303 -1.3641492537313429 -4.484459701492538
H 4.26984776119403 -0.441449253731343 -3.176459701492538
C 2.60904776119403 -3.4296492537313434 -2.8992597014925376
H 1.9825477611940296 -3.869549253731343 -2.119359701492538
H 2.06294776119403 -3.373349253731343 -3.845759701492538
H 3.5215477611940305 -4.019849253731343 -3.0234597014925377
C 3.7281477611940304 -2.060049253731343 -1.156659701492538
H 3.9048477611940298 -1.032549253731343 -0.8295597014925382
H 3.12924776119403 -2.623249253731343 -0.4404597014925382
H 4.68244776119403 -2.5769492537313434 -1.3005597014925383
C 3.1110477611940297 3.755250746268656 2.588740298507462
H 3.40124776119403 4.809350746268656 2.534540298507462
H 2.9823477611940303 3.461750746268656 3.634840298507462
H 3.86514776119403 3.1392507462686563 2.091540298507462
C 1.99744776119403 3.9574507462686572 0.40494029850746194
H 2.67914776119403 3.230350746268657 -0.04295970149253803
H 1.03214776119403 3.981150746268657 -0.10175970149253821
H 2.4399477611940297 4.958250746268657 0.368240298507462
C 0.7418477611940297 4.4992507462686575 2.475440298507462
H -0.18475223880597014 4.424250746268656 1.901240298507462
H 0.57844776119403 4.189650746268656 3.511940298507462
H 1.1210477611940297 5.524350746268658 2.4432402985074617
N 3.00114776119403 -2.025349253731343 -2.490159701492538
N 1.7831477611940298 3.586450746268657 1.862540298507462
C -3.55075223880597 -3.8435492537313434 0.6444402985074619
H -2.62515223880597 -2.2736492537313433 1.7424402985074618
H -4.67195223880597 -1.3478492537313436 1.5102402985074619
H -4.83415223880597 -1.6757492537313432 -0.1945597014925382
H -3.7169522388059697 0.17335074626865676 -0.900559701492538
H -3.9132522388059705 -4.043149253731343 -0.34225970149253815
H -4.35435223880597 -3.9354492537313432 1.3449402985074619
H -2.78115223880597 -4.545049253731343 0.8904402985074619
H -5.24235223880597 1.138950746268657 1.5249402985074618
H -5.92805223880597 0.6501507462686567 -0.006059701492538094
H -4.89895223880597 2.059650746268657 0.08004029850746197
C 1.4039414887112203 3.634322504664901 -2.6022337339375983
O 0.5508556569380965 3.2488279633078494 -3.3867170166223683
O 1.6417034786540003 4.81732261162356 -2.3327686208445466
O 2.1615127859633403 2.9010809749364377 -1.956407926880305
O 3.299739229556518 3.776953827940371 -7.1020827190698155
H 3.43059212155866 3.8053382774134947 -8.0617905915929
H 3.088635211790828 2.848531883722943 -6.922000150566606
O 0.2857952274815816 8.57081502681757 9.287410960398919
H -0.38064360391036045 7.870902402146548 9.357759796487812
H 0.30544741536869124 8.965093594244122 10.17235171947792
O 6.117211538760831 -9.997416275568133 2.009519582645195
H 5.74265658008472 -9.46054492969688 2.723973988337767
H 5.340497112285726 -10.352212964710667 1.5514847003720829
O -0.1360598865283169 -1.297713161882397 7.009901549955334
H -0.4379712607972126 -1.341498303997166 7.929629629507686
H -0.6057172008773564 -2.0249141950990976 6.574513666950984
O 0.7366178824218017 -10.196595098827403 2.0823401825453947
H 0.17670747122130348 -10.723356787246816 2.6722467954451155
H 0.30252370342823753 -9.330577169145755 2.059164041067282
O -1.6922720350397324 1.8787669891302499 -6.366293121586118
H -1.6568530571619187 1.9904279198685613 -5.40439671892482
H -1.2247156649726552 2.655054785772472 -6.709411529565147
O -7.0358086556116 1.1476255921575982 -5.70408948724424
H -7.735858147196781 1.6990168384493614 -6.084701835630554
H -7.340198408558132 0.24123080467219715 -5.861434051244541
O 3.5794422750212616 -10.446122955156348 -4.072241768631955
H 3.181044408083841 -10.334606740959478 -3.195993726984551
H 2.8277492701136127 -10.384794673103622 -4.680648221994648
O -0.12648792939558362 -4.303897553340471 -3.8143411144492876
H 0.09903645837104413 -4.2193191668562555 -2.875750360200016
H 0.5948153845678754 -4.836856679262652 -4.181271685077566
O -6.593078265534494 -2.5693015570711695 6.589217453032347
H -6.805168727328569 -1.9728790599042658 7.322883042922708
H -5.994952600308341 -3.221826548948778 6.983449323728891
O 5.2154339125791225 8.221923558282771 2.4769780490049107
H 6.071553447899339 8.267784615396577 2.928556903230285
H 4.900905410423485 9.138456604895204 2.4779476360636687
O -0.05694527761165069 -5.631347523726949 -7.838678063658643
H 0.08111675698265489 -5.815633989263895 -6.897431693082064
H -0.5494396058443165 -4.796851979137701 -7.844013512969627
O 5.998170540445887 2.063191137575838 -2.9307423372813566
H 6.869549978215636 2.4259109515707418 -3.1500584763764534
H 5.445374702557394 2.3080511197124354 -3.687988859268234
O 7.033043504429735 0.33677633864363665 4.9287881112743746
H 6.924692927797851 0.7819237182561856 4.074931378638495
H 7.950207109719759 0.02438668945788436 4.915165611026391
O 2.628157807837385 -10.293638652513783 2.7496317290179157
H 3.5058528427730535 -10.704135836516379 2.7391034587318925
H 2.61258497631672 -9.79574451789017 3.580788069260731
O -2.6389947704493375 6.781198220051551 3.0926195129515195
H -2.389384536128357 6.562307113239301 4.0029759108423315
H -1.8042681785005232 7.047195185067092 2.6785674925530705
O 4.487112423142858 2.6598313296770812 5.554753299327497
H 4.1987250592458665 3.5823421623531857 5.485660254527125
H 3.926828032328027 2.2912088662382026 6.254153631867813
O -6.045217352118346 6.017758455509388 -2.2362189413018085
H -5.473602581912335 5.704881155316696 -2.9533881726596953
H -6.621426554073129 6.669231712147759 -2.6634513087175087
O -3.9101346133629113 3.140952712371049 -3.881885475814728
H -4.409986666280052 2.378651142276505 -4.2105366561350115
H -3.3593983113388295 3.4021167227909843 -4.6351748157062564
O -3.94949856280728 -5.327825596202676 -7.135269231230308
H -4.014265496943351 -4.959407623364877 -8.02916005142744
H -3.136019265790841 -5.853875203954226 -7.157296210371369
C 13.59275906721703 8.573153203945846 -11.434069489130385
O 13.579423449934273 8.451390729310473 -12.624789573105774
O 13.606094684499785 8.694915678581221 -10.243349405154994
O 8.060242778159072 -11.952576523096438 -0.095073480193816
H 7.9003155101247255 -12.726590759314437 0.46554456087420304
H 8.188742242902064 -12.326781195136082 -0.9796189540302187
O 16.397087747146692 19.035592715401677 -2.3906320368672755
H 15.481738540912797 19.02133264217764 -2.072984688604098
H 16.89440819376392 18.584779756672418 -1.69177440192421
O -13.449160209742248 -1.5184661668385848 -2.6913023432587795
H -13.378192235464516 -1.5558845136633153 -1.7256260150577514
H -14.40114008583219 -1.4376835663074736 -2.8530751199278286
O 0.05772124933816736 1.8071703596819173 12.946100894288845
H 0.36801609258697265 0.963283988667418 12.58479733774784
H -0.9056192624711037 1.7621205561722437 12.85172124706133
O -9.696821836725757 5.041491473070682 -6.018768546006614
H -9.502409395734478 4.63625187754032 -6.877227648062269
H -8.822769157603854 5.203257580129501 -5.632989353946107
O 8.849949531965732 12.795729954403075 10.835451368799971
H 8.682918278452838 12.072095649457967 11.45788314012637
H 8.494194797686433 12.468790487046643 9.995504288310636
O -1.9089646421158948 -4.784928412633283 -20.445735306686913
H -2.73738998711781 -5.0729386128198 -20.85771701653212
H -1.5111380709123683 -5.606573283056742 -20.120780432202373
O -5.133316164505597 11.412498147451892 -5.003504372565004
H -4.849629125798962 11.163189997498785 -5.895880115924728
H -5.163527674155777 10.571066880993788 -4.523876774514842
O 7.683477202952733 -17.696900690198266 -5.193999311668237
H 8.105028200085968 -17.798596509376868 -6.060555757652899
H 8.4196458792408 -17.49181289173354 -4.598216952687065
O -9.81689167159526 -10.344587103557018 -12.255941703859257
H -9.378713380773993 -10.319221409676684 -11.392041406413469
H -9.226094359831954 -9.837728023226587 -12.83301566220415
O 15.234565022775502 5.3750233668020915 0.7530851145794917
H 15.560296433605652 4.481933415989371 0.5653173200674071
H 15.423331846378398 5.868591878726061 -0.05914585912443604
O -14.747787313303373 4.8741227744790265 11.229310517162254
H -13.831743039087584 5.11393983083182 11.435023968493834
H -14.827264825603963 3.9613665802589884 11.544780641344342
O 9.356480314297347 12.884604815101646 0.3773323514756237
H 10.09324478713594 12.289802434092877 0.17152759932164052
H 8.756673495315207 12.339271536075902 0.9081857577843291
O 12.620975963393146 11.606060359864818 -11.479015933633194
H 11.863389048431184 11.085639510362991 -11.785922373093523
H 13.05083579233278 11.898369559973753 -12.29677983800637
O -4.119866940288332 -19.499257710810205 9.697473379101
H -4.100148872100574 -19.756792966900957 10.63141885211172
H -4.841275286747508 -18.85423281331753 9.647725780429276
O -8.976898232826668 -3.5971337846651608 -4.969456523203023
H -8.087288615447452 -3.7954631714282447 -5.298436066507142
H -9.552013623278066 -3.772931256894122 -5.7292587874296075
O -11.77724538957324 1.0588058815850303 -6.820386544926018
H -12.1999893567723 1.6384386884702948 -7.471754877192113
H -10.90303615370771 1.454959752477973 -6.687036378807102
O -15.795300005867658 7.545801472334366 -1.523709075927794
H -15.847318430583679 7.009127369100767 -2.3288440629383436
H -14.895995549576595 7.391717560698664 -1.1974092331909705
O 14.53456143415385 -1.7320800865952408 -3.3262652690976986
H 14.394088921477167 -1.910793370989041 -4.268229383097527
H 15.419159876092804 -2.086271129321024 -3.150207761243027
O 5.578125889135959 12.51796346384527 -6.395312900822802
H 5.535984076197513 11.55867484507671 -6.26509473617834
H 4.649860656384005 12.795912615179306 -6.389847442319594