194

C -5.0710522388059704 1.0783507462686561 0.47044029850746183
C -3.8153522388059704 0.1782507462686569 0.19534029850746193
C -4.11845223880597 -1.3219492537313435 0.5608402985074619
C -2.96945223880597 -2.3874492537313436 0.7034402985074619
C -2.52015223880597 0.7359507462686565 0.7384402985074618
C -2.20305223880597 0.7852507462686571 2.097440298507462
C -1.5755522388059702 1.205650746268656 -0.18965970149253808
C -0.9533522388059701 1.2695507462686564 2.508640298507462
H -2.91125223880597 0.4298507462686567 2.840840298507462
C -0.32655223880597006 1.6562507462686575 0.21554029850746192
H -1.7850522388059702 1.178550746268657 -1.2573597014925382
C 0.004447761194029898 1.6956507462686563 1.569740298507462
H -0.7158522388059702 1.2676507462686573 3.5705402985074617
H 0.3943477611940298 1.9193507462686572 -0.5551597014925382
C -1.76045223880597 -2.1592492537313435 -0.1734597014925381
C -0.5287522388059701 -1.936549253731343 0.464840298507462
C -1.8068522388059702 -2.121249253731343 -1.5681597014925381
C 0.6114477611940299 -1.614449253731343 -0.2582597014925381
H -0.4544522388059702 -1.954049253731343 1.5506402985074619
C -0.6479522388059701 -1.8270492537313432 -2.2998597014925384
H -2.74345223880597 -2.290549253731343 -2.092259701492538
C 0.5698477611940298 -1.5506492537313434 -1.6506597014925382
H 1.5072477611940298 -1.351949253731343 0.2991402985074618
H -0.7173522388059701 -1.7640492537313435 -3.3840597014925375
C 1.7791477611940298 -1.082849253731343 -2.4255597014925376
H 1.4739477611940297 -0.9102492537313429 -3.464259701492538
H 2.1252477611940295 -0.1337492537313434 -2.0010597014925384
C 1.3965477611940298 2.0964507462686566 1.997440298507462
H 1.51704776119403 1.8448507462686567 3.057640298507462
H 2.1256477611940294 1.5207507462686571 1.4165402985074618
C 3.94864776119403 -1.4275492537313434 -3.522959701492538
H 4.81734776119403 -2.087049253731343 -3.615159701492538
H 3.4305477611940303 -1.3641492537313429 -4.484459701492538
H 4.26984776119403 -0.441449253731343 -3.176459701492538
C 2.60904776119403 -3.4296492537313434 -2.8992597014925376
H 1.9825477611940296 -3.869549253731343 -2.119359701492538
H 2.06294776119403 -3.373349253731343 -3.845759701492538
H 3.5215477611940305 -4.019849253731343 -3.0234597014925377
C 3.7281477611940304 -2.060049253731343 -1.156659701492538
H 3.9048477611940298 -1.032549253731343 -0.8295597014925382
H 3.12924776119403 -2.623249253731343 -0.4404597014925382
H 4.68244776119403 -2.5769492537313434 -1.3005597014925383
C 3.1110477611940297 3.755250746268656 2.588740298507462
H 3.40124776119403 4.809350746268656 2.534540298507462
H 2.9823477611940303 3.461750746268656 3.634840298507462
H 3.86514776119403 3.1392507462686563 2.091540298507462
C 1.99744776119403 3.9574507462686572 0.40494029850746194
H 2.67914776119403 3.230350746268657 -0.04295970149253803
H 1.03214776119403 3.981150746268657 -0.10175970149253821
H 2.4399477611940297 4.958250746268657 0.368240298507462
C 0.7418477611940297 4.4992507462686575 2.475440298507462
H -0.18475223880597014 4.424250746268656 1.901240298507462
H 0.57844776119403 4.189650746268656 3.511940298507462
H 1.1210477611940297 5.524350746268658 2.4432402985074617
N 3.00114776119403 -2.025349253731343 -2.490159701492538
N 1.7831477611940298 3.586450746268657 1.862540298507462
C -3.55075223880597 -3.8435492537313434 0.6444402985074619
H -2.62515223880597 -2.2736492537313433 1.7424402985074618
H -4.67195223880597 -1.3478492537313436 1.5102402985074619
H -4.83415223880597 -1.6757492537313432 -0.1945597014925382
H -3.7169522388059697 0.17335074626865676 -0.900559701492538
H -3.9132522388059705 -4.043149253731343 -0.34225970149253815
H -4.35435223880597 -3.9354492537313432 1.3449402985074619
H -2.78115223880597 -4.545049253731343 0.8904402985074619
H -5.24235223880597 1.138950746268657 1.5249402985074618
H -5.92805223880597 0.6501507462686567 -0.006059701492538094
H -4.89895223880597 2.059650746268657 0.08004029850746197
C 3.625738679666819 -0.7710875485073396 2.8415805807659416
O 3.787704753660215 -1.2581219184680204 1.7332755632043646
O 3.882938067593159 -1.3341646088681491 3.9118254887406283
O 3.179562005797949 0.3602440417454911 3.064433880026496
O 2.734952519388396 2.421668220478599 -8.069180621140713
H 2.573443312402755 1.5879452892192258 -7.602502780600639
H 3.2889854605650215 2.928987481436266 -7.457104962539146
O -2.274490188221263 4.635273101157338 -4.851411046766039
H -2.858579022826911 4.6254920723881074 -4.078292736502187
H -1.6674062970353805 3.896291464417811 -4.695471206044122
O 3.996587947672243 3.2112163277921892 -11.859841171896846
H 4.437042268719793 4.045951710336405 -12.07935014460481
H 3.743754245674419 3.3173214497207084 -10.930444181082585
O -0.46427708254099864 -2.9761810203243977 -5.177865532713825
H -0.9025785514817035 -3.826600119661975 -5.024091234775955
H 0.15478951874006286 -3.1592190408432907 -5.9005103766882625
O 5.3681508754914296 -3.1062094332525523 -6.48713475154565
H 5.67566377529956 -2.505479983296895 -5.7917734775969425
H 6.120744973195178 -3.165856943176204 -7.094593592094857
O 5.926453280723457 0.37776908179506985 2.137676351139165
H 6.189224639338209 1.1668116273763105 1.6403530847877563
H 5.708187248309876 0.7180692074851547 3.0183111834333145
O 0.8704809828587027 -0.844299728049188 5.0968361733211704
H 0.35442194025167895 -1.1953508314491852 5.838060528186259
H 1.156957374060501 -1.6351523328865114 4.615748469252553
O 3.0010033769222106 7.212065387448582 -6.965689465433082
H 2.4868735717368553 7.3783465757226665 -6.161333532561179
H 2.346182734583671 7.267959862068421 -7.677762269557993
O 1.069501859757978 4.766980933906529 -5.751817976175617
H 1.7023574945387547 4.892234194848186 -5.028787739567422
H 0.8597175473935528 5.668649418824518 -6.038080844692445
O 1.787042691329248 -5.127281756202295 9.539681250537651
H 1.7797664184845647 -5.719963833638234 8.77310289978692
H 2.575293254266798 -4.580039882290285 9.404961817025242
O -2.2767240232846286 -4.727437172542986 -6.425224534450286
H -2.264283353225587 -4.858957681184009 -7.385180232613117
H -3.0389709162526115 -5.246507784055374 -6.127722738279553
O -1.974045073140839 -7.687641693475287 3.680714069116652
H -1.7703933646402774 -7.7377309310023 2.7346779139889708
H -2.0244801001906936 -6.736565291746071 3.8592411830805755
O 5.554625114686312 -3.896777400244403 1.6207952404766197
H 5.387185077108244 -3.0029225217180597 1.955391485002036
H 6.067078449283357 -4.318755924008125 2.326690168665339
O -6.346219343635383 3.4327740612934377 3.181519621693933
H -7.305478106286232 3.4543276069929085 3.3168910656743447
H -6.006914476736412 3.0000202577556836 3.9793656576697205
O -2.8922691999453494 -8.855455203134824 -4.126984795662688
H -3.2165355202067807 -8.152242252822152 -3.544481356225064
H -3.5417536627830337 -9.566497263153448 -4.019508911312219
O 1.7680812379171602 -5.663823891951 -4.505597164313308
H 1.7540700274827885 -5.755801973181397 -5.470123512038105
H 1.5429937484672216 -6.549297255961755 -4.182743500836184
O -0.672601321623651 -9.906051700187465 7.622160585556277
H -0.6393098827362182 -9.847592583424822 6.655495406363328
H -1.6203579404569122 -9.909840719418742 7.823915335416122
O -3.5886562477738977 4.880813452283087 10.055036111122142
H -3.4099500122475765 4.60733655417542 10.967309000385775
H -3.6711782490202145 4.044859751952351 9.571990073447004
O 6.670123721885978 3.7579582232459625 2.9291826522740267
H 6.503365822636802 4.477163185854372 3.556799877736679
H 6.069634399874816 3.9463505826827348 2.192376818043312
O -2.59952520415126 5.968012301679555 4.256761996709269
H -2.837172698699492 6.123960749546468 5.18313724834483
H -3.2515629487574524 5.318266160008073 3.9540431910630236
C -1.4267291944575642 -4.2449237323325555 14.864221012631718
O -1.6251611580285013 -3.8869706650500104 15.989082166177525
O -1.2282972308866271 -4.6028767996151005 13.739359859085914
O -1.8064385652862862 13.644499291528454 -0.8473548705454572
H -1.544611846338487 13.509312286445148 -1.7704684062503766
H -1.8113396774491117 14.607975590417807 -0.7441495175930033
O -3.153460895629215 11.27577816035909 -5.689175342239932
H -4.062789820349964 11.582652506248634 -5.555323187228992
H -2.674369877095137 11.621294115405446 -4.921026616361678
O 10.70796454358425 9.24004297054253 -0.49281441995396547
H 10.787556480131025 9.497602515139455 0.43793557952159756
H 11.3889930758718 8.560178313188455 -0.606595482486747
O 11.146093504105847 -15.237493315503226 -3.5473908544687163
H 10.372389437091273 -15.247094699618723 -4.130706538303958
H 11.628882775616614 -14.440107817467318 -3.812065808206561
O -5.917284902824651 -1.438949087050141 5.3359044581956425
H -6.164278942798342 -0.8340544714962972 6.051490794839548
H -5.828822260929889 -0.8624017464196507 4.5621283476178425
O -6.8376157106682065 7.802632453401192 4.001667528293455
H -7.592131448261203 8.376072719836383 4.203755676029125
H -6.428185874227121 8.218454341069851 3.2280905695702145
O -1.12661036571634 -6.387396798737993 -9.604196098718687
H -1.2660233383194934 -5.452735529129214 -9.389860634869938
H -0.314990702360914 -6.387599362727215 -10.13356877021076
O -4.37154359221539 16.439915148161756 -4.590650791835516
H -5.056220901315804 15.766924473087206 -4.45924344590036
H -4.523491414209378 17.071843181209353 -3.871943087173963
O -8.554028202988647 2.4337281243571387 13.19325460487918
H -8.511887941387254 2.5850568100406823 12.23706885715991
H -9.388958355389743 1.958127162537131 13.318383778245613
O 4.034855840158136 7.86367048605601 -20.433592023573613
H 4.513756860043665 7.4319757524665135 -21.156959721942634
H 4.7294269865619185 8.31090816672113 -19.92712255373696
O -16.019781941180636 -5.8056937263328106 -2.4322523984338273
H -15.794548450728986 -5.292313632191236 -1.6418865903309223
H -15.25310513329419 -6.383879696977454 -2.56213542233906
O 0.16292366096946154 -21.960184806601312 -5.316128662594392
H 0.6367018448028858 -22.754480288670315 -5.026998455614429
H -0.20799116491602554 -22.208916372781232 -6.176080256711186
O -10.755790134704212 -1.1216247388660183 -3.029167323430826
H -10.701698264729504 -1.018186330976477 -2.0672203798440614
H -9.875708033837352 -0.8638295900442738 -3.342151510376027
O -11.918250952492905 -10.76958107631636 9.422200158350932
H -12.765376042686961 -11.172921606289037 9.179995997888991
H -11.268750233165385 -11.250187564139289 8.887290667169905
O 11.105582213863574 4.496569519604995 -13.45911875754826
H 11.400816754435928 4.467083490747126 -12.536657648853035
H 11.738175123148828 5.091961465497539 -13.888416540198378
O 19.160427730577112 8.675514071309909 -2.2086563629983553
H 19.58834275288639 7.9734905249181836 -1.6958025525478133
H 19.12155813137683 9.423774706985013 -1.5941995950666357
O -11.454200945052158 10.559252439749836 11.08759938432637
H -12.423180608208597 10.56593900123905 11.08657021733968
H -11.216338592059447 11.213480557966147 11.761668382770829
O 4.123017893291768 -16.26817661406226 -13.659603871339685
H 4.266508679303741 -16.25650793435217 -14.617853104651921
H 5.017300748212889 -16.31625520812694 -13.289592292484521
O 9.150323874827258 -10.475775676333706 -8.503277120119378
H 8.845026344279983 -10.372345367298859 -9.417094906067263
H 8.593014432672794 -9.863658133710336 -7.999610321533044
O 6.975147062936825 9.226914680678298 8.58501526357786
H 7.259411785580123 9.916990851546167 7.966989533724423
H 7.79995899512744 8.925043467368782 8.994308546433839