194

C -5.0710522388059704 1.0783507462686561 0.47044029850746183
C -3.8153522388059704 0.1782507462686569 0.19534029850746193
C -4.11845223880597 -1.3219492537313435 0.5608402985074619
C -2.96945223880597 -2.3874492537313436 0.7034402985074619
C -2.52015223880597 0.7359507462686565 0.7384402985074618
C -2.20305223880597 0.7852507462686571 2.097440298507462
C -1.5755522388059702 1.205650746268656 -0.18965970149253808
C -0.9533522388059701 1.2695507462686564 2.508640298507462
H -2.91125223880597 0.4298507462686567 2.840840298507462
C -0.32655223880597006 1.6562507462686575 0.21554029850746192
H -1.7850522388059702 1.178550746268657 -1.2573597014925382
C 0.004447761194029898 1.6956507462686563 1.569740298507462
H -0.7158522388059702 1.2676507462686573 3.5705402985074617
H 0.3943477611940298 1.9193507462686572 -0.5551597014925382
C -1.76045223880597 -2.1592492537313435 -0.1734597014925381
C -0.5287522388059701 -1.936549253731343 0.464840298507462
C -1.8068522388059702 -2.121249253731343 -1.5681597014925381
C 0.6114477611940299 -1.614449253731343 -0.2582597014925381
H -0.4544522388059702 -1.954049253731343 1.5506402985074619
C -0.6479522388059701 -1.8270492537313432 -2.2998597014925384
H -2.74345223880597 -2.290549253731343 -2.092259701492538
C 0.5698477611940298 -1.5506492537313434 -1.6506597014925382
H 1.5072477611940298 -1.351949253731343 0.2991402985074618
H -0.7173522388059701 -1.7640492537313435 -3.3840597014925375
C 1.7791477611940298 -1.082849253731343 -2.4255597014925376
H 1.4739477611940297 -0.9102492537313429 -3.464259701492538
H 2.1252477611940295 -0.1337492537313434 -2.0010597014925384
C 1.3965477611940298 2.0964507462686566 1.997440298507462
H 1.51704776119403 1.8448507462686567 3.057640298507462
H 2.1256477611940294 1.5207507462686571 1.4165402985074618
C 3.94864776119403 -1.4275492537313434 -3.522959701492538
H 4.81734776119403 -2.087049253731343 -3.615159701492538
H 3.4305477611940303 -1.3641492537313429 -4.484459701492538
H 4.26984776119403 -0.441449253731343 -3.176459701492538
C 2.60904776119403 -3.4296492537313434 -2.8992597014925376
H 1.9825477611940296 -3.869549253731343 -2.119359701492538
H 2.06294776119403 -3.373349253731343 -3.845759701492538
H 3.5215477611940305 -4.019849253731343 -3.0234597014925377
C 3.7281477611940304 -2.060049253731343 -1.156659701492538
H 3.9048477611940298 -1.032549253731343 -0.8295597014925382
H 3.12924776119403 -2.623249253731343 -0.4404597014925382
H 4.68244776119403 -2.5769492537313434 -1.3005597014925383
C 3.1110477611940297 3.755250746268656 2.588740298507462
H 3.40124776119403 4.809350746268656 2.534540298507462
H 2.9823477611940303 3.461750746268656 3.634840298507462
H 3.86514776119403 3.1392507462686563 2.091540298507462
C 1.99744776119403 3.9574507462686572 0.40494029850746194
H 2.67914776119403 3.230350746268657 -0.04295970149253803
H 1.03214776119403 3.981150746268657 -0.10175970149253821
H 2.4399477611940297 4.958250746268657 0.368240298507462
C 0.7418477611940297 4.4992507462686575 2.475440298507462
H -0.18475223880597014 4.424250746268656 1.901240298507462
H 0.57844776119403 4.189650746268656 3.511940298507462
H 1.1210477611940297 5.524350746268658 2.4432402985074617
N 3.00114776119403 -2.025349253731343 -2.490159701492538
N 1.7831477611940298 3.586450746268657 1.862540298507462
C -3.55075223880597 -3.8435492537313434 0.6444402985074619
H -2.62515223880597 -2.2736492537313433 1.7424402985074618
H -4.67195223880597 -1.3478492537313436 1.5102402985074619
H -4.83415223880597 -1.6757492537313432 -0.1945597014925382
H -3.7169522388059697 0.17335074626865676 -0.900559701492538
H -3.9132522388059705 -4.043149253731343 -0.34225970149253815
H -4.35435223880597 -3.9354492537313432 1.3449402985074619
H -2.78115223880597 -4.545049253731343 0.8904402985074619
H -5.24235223880597 1.138950746268657 1.5249402985074618
H -5.92805223880597 0.6501507462686567 -0.006059701492538094
H -4.89895223880597 2.059650746268657 0.08004029850746197
C 0.9074358971717142 -2.9122761982404493 3.151073565527719
O 0.028031968162032017 -3.4925310014716757 3.7689154478644733
O 1.0008088991266064 -1.685644305691843 3.027432363703425
O 1.8401048099041712 -3.461913880324147 2.5538504061843152
O -2.0044993131158177 -4.8508043872150415 -1.6798980477014984
H -2.597475514623521 -4.398412657531739 -2.2985161077835223
H -2.1948686727681457 -5.7908005141938705 -1.8182047086776159
O -2.2051467321110634 7.152322608987978 -6.242657073458151
H -2.147516056885692 7.34265762045039 -5.294280225583492
H -2.589332706341284 7.95785364711871 -6.620126049816213
O 0.1708500273472553 10.925590245039626 -2.1734671722760197
H 1.087005498554424 11.156164410392588 -1.9579165662714058
H -0.14988207992197888 11.688100154273823 -2.6781170489096056
O 4.059034696647037 2.681761783484286 -6.641919593363287
H 3.7662924468010557 3.5995991768895377 -6.537785778864019
H 3.2401826287680136 2.1929848022437266 -6.813792505247659
O 8.440812126810417 3.398598622331 -2.5406277821615557
H 8.253622747557696 3.1155796025801585 -1.632978220020828
H 9.244839950161909 2.9118872425456974 -2.7764523702861803
O -0.9554307518248026 1.4616957217037787 -6.117544919785889
H -0.6580086087351944 1.2437115760773227 -5.22144763826145
H -1.8143523947571785 1.0195377022063692 -6.193121645015789
O -6.764390581116789 2.7910747298546483 -8.966689842696116
H -7.665985214740524 2.6388906045493137 -8.64585582715859
H -6.578929266089819 2.017164355002218 -9.519526868069994
O -9.145477347787738 -2.9263888356704575 6.38004889847059
H -8.192907067033447 -3.100857443933962 6.413781995783026
H -9.496976140683026 -3.6499951439453167 5.839859622829189
O 8.434621790042868 -3.5623543939617246 -0.9179240604393304
H 8.777502890335214 -4.193609502141147 -0.26760345000191
H 7.822734756139782 -4.088265645500191 -1.4545557381723244
O -2.100604477399512 -8.01712541913055 6.064682926043016
H -1.5649993307629875 -7.934132893551245 5.2614353150945385
H -2.118936837516677 -8.97063147329764 6.236298990382121
O 8.112815433156328 2.297183370650658 1.155508167773399
H 8.427379369026221 3.0012139068584314 1.7423283201514828
H 8.699542780068663 1.5508960321118312 1.3498485213334486
O 4.482783599688839 1.024501034394158 1.498041047122491
H 4.635746150060842 0.7397422971749115 0.5845410325297192
H 5.350112143336787 1.3400957750080857 1.7931733926394773
O -7.588074224169451 -2.5144607836597714 -1.3792394108988975
H -7.266462956771197 -2.615783813497944 -2.2876815902404912
H -8.441312254061401 -2.066719437177234 -1.4815843926816221
O -0.4588747145964258 6.435721278281073 -7.653155151606562
H -0.19743158571513497 7.347239082047193 -7.4537807784335035
H -0.5649428976084296 6.026600722762809 -6.7811850512562355
O 10.331145193727766 0.22794926660623815 -3.4531246142125376
H 9.702299447421414 0.5676664707239945 -4.107427759152881
H 10.495359262296367 0.9851390628050973 -2.871180204052532
O -3.855706569017387 -1.5212443741809094 5.7726331852084805
H -3.895577084129322 -1.5449738413697653 6.740525023851437
H -4.693893369437824 -1.9197087552298315 5.4940098392084575
O 5.245865864701487 -3.7764942505097348 1.5238768504719824
H 5.317141910574662 -3.721540816121328 2.4886914452173174
H 5.567999550790932 -2.916028917045006 1.2159949859657095
O 5.571872701896044 4.268315745814966 9.400742884006817
H 5.788695143374797 4.067690988679823 8.477864185262685
H 4.611690776803146 4.398494532156947 9.39261277875395
O 7.024782390808238 -5.063885164116854 -6.4644477121461925
H 7.292494988775265 -5.484608886066852 -5.63361146379259
H 6.151107912206149 -5.441168335454573 -6.646964172677066
O 8.558197958862278 3.067657068402369 6.51963030323941
H 8.344598630115238 3.88317219706882 6.997414520826131
H 9.180456120049152 3.35406326584014 5.834263091297105
C 1.6321377457621016 -11.52486310119087 -10.075398596465936
O 1.538446474116638 -12.131085387496586 -11.103277355125599
O 1.7258290174075657 -10.918640814885155 -9.047519837806275
O 12.707263552337606 -1.3932832256707695 -3.856949530541093
H 12.199671808892807 -0.5678734381897355 -3.8610313949663424
H 13.597827090297702 -1.1190862420867091 -3.591102688638856
O 16.49407066180722 7.957127912256378 -6.538935683627109
H 17.03952477050678 7.686433398570866 -7.29270730186657
H 17.09131395191742 7.8835360014663785 -5.779431485228825
O -14.299875617567794 8.349759701385778 6.53894857000588
H -14.639541658656114 7.748980632316345 5.858758267517342
H -13.742044074786719 7.78393478375088 7.093590866231065
O 9.264444467482669 -10.804730157900774 -7.7619112599404545
H 9.477829528603177 -10.477178104775994 -8.6485587801447
H 9.5295087869838 -11.7364474435188 -7.7865232592086535
O -8.211352817962863 -8.89494894119089 2.0340533545570496
H -9.111463902200905 -8.536172561185264 2.0272048450930518
H -7.74142279567679 -8.360684797450812 1.376261941442003
O 15.111353893102342 14.884313927864316 -11.748162149779692
H 14.341020098168007 15.19860651222608 -11.251399255938708
H 15.007098346171356 13.92097794545488 -11.756909162376715
O -3.2257448345916844 -5.443838725867245 13.319049328142665
H -3.665820720456278 -4.886241106395401 12.659970071649315
H -2.3771145391958974 -5.666827394554298 12.907874645466753
O -12.215933687503671 14.036675693696617 0.6795030751541613
H -12.984852634328718 14.041353962525092 1.2691717311926451
H -11.723439184439636 14.832463064562587 0.9307670182935057
O -0.6069139408638251 -7.693667258438971 8.549648983132997
H -0.5961849584870098 -7.578583578864729 7.587563751704507
H 0.22343975626519752 -7.289419181004678 8.843005717936952
O -11.652086790772564 11.416953229935856 -1.9505632987435308
H -11.45494020144373 10.875359477300803 -1.1716045152878902
H -11.019872000169965 12.149020830521863 -1.8927408894582045
O -11.423359740027296 -3.25293517135794 -10.115411501145688
H -10.616294714225495 -3.168008335089551 -9.585882622321332
H -12.102515382454591 -3.498284370032435 -9.469258788260454
O 10.005960253395362 -6.962197327284148 1.81337602280226
H 9.404517472965004 -6.324282794330458 2.226049001581676
H 10.048790896488155 -7.6901599382806145 2.451496636247291
O 0.7053430847559212 -16.516068603043593 1.7636384311008328
H 1.0495507789046963 -16.55052933340505 2.668790837191509
H 1.4440877067434723 -16.162728247135263 1.2455950731943304
O 4.843443193376763 -1.7439790667570172 -16.136098037130605
H 4.1393602582340705 -1.1109388636304112 -15.92995566262628
H 4.371173625802801 -2.5116748806482634 -16.491859947932426
O -11.434132961587656 11.27932029309085 -13.334659924144349
H -11.74821252630022 10.582685568207438 -13.930496683682213
H -10.812617108103757 10.822818481474508 -12.74790095816328
O 3.052609865723097 10.07354660107155 -6.134381525498252
H 3.2436015564840655 10.997212654936073 -6.356486347369839
H 2.643407450015478 10.123482004663133 -5.257442654910802
O 15.202181503630342 5.057323670250485 -13.245762076037057
H 15.3613351953867 4.550639133748371 -12.435263316155238
H 15.326098104993147 5.979056237744503 -12.973703820827666
O 9.8773347891167 -7.432251477441628 13.330166550212942
H 9.837558422141973 -7.184180206580563 14.266032909317527
H 10.32811416248855 -6.685050013234036 12.908918555881208
O -12.922675667837561 5.496810462730496 -9.603442428143843
H -12.41924460539871 4.731919531718843 -9.92040675725331
H -13.815621296616996 5.1475543785381825 -9.463334484049462
O -14.750642695297458 7.3695606201377775 -11.865664800525364
H -15.711585863730397 7.247755883399684 -11.838847081565143
H -14.532434704835165 7.704442030965479 -10.982940801825626