194

C -5.0710522388059704 1.0783507462686561 0.47044029850746183
C -3.8153522388059704 0.1782507462686569 0.19534029850746193
C -4.11845223880597 -1.3219492537313435 0.5608402985074619
C -2.96945223880597 -2.3874492537313436 0.7034402985074619
C -2.52015223880597 0.7359507462686565 0.7384402985074618
C -2.20305223880597 0.7852507462686571 2.097440298507462
C -1.5755522388059702 1.205650746268656 -0.18965970149253808
C -0.9533522388059701 1.2695507462686564 2.508640298507462
H -2.91125223880597 0.4298507462686567 2.840840298507462
C -0.32655223880597006 1.6562507462686575 0.21554029850746192
H -1.7850522388059702 1.178550746268657 -1.2573597014925382
C 0.004447761194029898 1.6956507462686563 1.569740298507462
H -0.7158522388059702 1.2676507462686573 3.5705402985074617
H 0.3943477611940298 1.9193507462686572 -0.5551597014925382
C -1.76045223880597 -2.1592492537313435 -0.1734597014925381
C -0.5287522388059701 -1.936549253731343 0.464840298507462
C -1.8068522388059702 -2.121249253731343 -1.5681597014925381
C 0.6114477611940299 -1.614449253731343 -0.2582597014925381
H -0.4544522388059702 -1.954049253731343 1.5506402985074619
C -0.6479522388059701 -1.8270492537313432 -2.2998597014925384
H -2.74345223880597 -2.290549253731343 -2.092259701492538
C 0.5698477611940298 -1.5506492537313434 -1.6506597014925382
H 1.5072477611940298 -1.351949253731343 0.2991402985074618
H -0.7173522388059701 -1.7640492537313435 -3.3840597014925375
C 1.7791477611940298 -1.082849253731343 -2.4255597014925376
H 1.4739477611940297 -0.9102492537313429 -3.464259701492538
H 2.1252477611940295 -0.1337492537313434 -2.0010597014925384
C 1.3965477611940298 2.0964507462686566 1.997440298507462
H 1.51704776119403 1.8448507462686567 3.057640298507462
H 2.1256477611940294 1.5207507462686571 1.4165402985074618
C 3.94864776119403 -1.4275492537313434 -3.522959701492538
H 4.81734776119403 -2.087049253731343 -3.615159701492538
H 3.4305477611940303 -1.3641492537313429 -4.484459701492538
H 4.26984776119403 -0.441449253731343 -3.176459701492538
C 2.60904776119403 -3.4296492537313434 -2.8992597014925376
H 1.9825477611940296 -3.869549253731343 -2.119359701492538
H 2.06294776119403 -3.373349253731343 -3.845759701492538
H 3.5215477611940305 -4.019849253731343 -3.0234597014925377
C 3.7281477611940304 -2.060049253731343 -1.156659701492538
H 3.9048477611940298 -1.032549253731343 -0.8295597014925382
H 3.12924776119403 -2.623249253731343 -0.4404597014925382
H 4.68244776119403 -2.5769492537313434 -1.3005597014925383
C 3.1110477611940297 3.755250746268656 2.588740298507462
H 3.40124776119403 4.809350746268656 2.534540298507462
H 2.9823477611940303 3.461750746268656 3.634840298507462
H 3.86514776119403 3.1392507462686563 2.091540298507462
C 1.99744776119403 3.9574507462686572 0.40494029850746194
H 2.67914776119403 3.230350746268657 -0.04295970149253803
H 1.03214776119403 3.981150746268657 -0.10175970149253821
H 2.4399477611940297 4.958250746268657 0.368240298507462
C 0.7418477611940297 4.4992507462686575 2.475440298507462
H -0.18475223880597014 4.424250746268656 1.901240298507462
H 0.57844776119403 4.189650746268656 3.511940298507462
H 1.1210477611940297 5.524350746268658 2.4432402985074617
N 3.00114776119403 -2.025349253731343 -2.490159701492538
N 1.7831477611940298 3.586450746268657 1.862540298507462
C -3.55075223880597 -3.8435492537313434 0.6444402985074619
H -2.62515223880597 -2.2736492537313433 1.7424402985074618
H -4.67195223880597 -1.3478492537313436 1.5102402985074619
H -4.83415223880597 -1.6757492537313432 -0.1945597014925382
H -3.7169522388059697 0.17335074626865676 -0.900559701492538
H -3.9132522388059705 -4.043149253731343 -0.34225970149253815
H -4.35435223880597 -3.9354492537313432 1.3449402985074619
H -2.78115223880597 -4.545049253731343 0.8904402985074619
H -5.24235223880597 1.138950746268657 1.5249402985074618
H -5.92805223880597 0.6501507462686567 -0.006059701492538094
H -4.89895223880597 2.059650746268657 0.08004029850746197
C 0.4241611714884732 2.778855989803531 -3.068602102947825
O 0.018519748103350775 2.9714201406500926 -4.204449620021677
O 0.4566282400499455 3.627577292222641 -2.170131455470104
O 0.8649751742037828 1.7054488379326331 -2.6418369617723605
O -4.341922512810543 3.941724130499582 4.788556976977936
H -4.291614700550529 4.04142247155202 5.7511039741250904
H -4.3393886707046905 4.852753525618295 4.458434325265253
O -6.507158776082642 -3.038341498768089 -7.7494178544601295
H -6.4739424977975295 -3.08583725811533 -8.716686270465178
H -5.89694976835597 -3.7331563563685304 -7.459867815871103
O -2.540711771019766 -7.118748185455177 0.14137226976328643
H -1.959014157840036 -6.462967265250837 -0.27160064510759874
H -2.5961758268488975 -6.833304629957885 1.0657140136199876
O -0.06148854530559911 7.235437971716999 -7.737766775123801
H 0.11538024575983918 7.258236170578645 -8.690218889287928
H 0.8072940541466145 7.383013085569491 -7.334777538343864
O 6.1768914462481295 -9.75472495792346 3.6914429707784517
H 5.8343384560300535 -9.528944673777344 2.8135773380740186
H 6.740873365249378 -10.526243234205943 3.531299632790962
O 7.460586391856843 3.900155726322964 1.229756405437732
H 7.478178588994558 3.9206029987530124 2.198384187689532
H 7.037292383528583 3.0538271068114673 1.021161116398984
O -4.749260963082779 -4.645074391401477 3.9392058022984813
H -3.7829762336315915 -4.627551104626026 3.8688203425071874
H -4.994952450423812 -5.5081902472657385 3.573653266123646
O -0.28591126444096826 -3.4397962697111666 10.52125410086925
H 0.43094055954315724 -3.177165796440417 9.92449949983109
H -1.0870693432216392 -3.329543748305104 9.98744509136485
O -3.9126952532294417 -1.0167706472784128 7.194778068583256
H -4.318230467883029 -0.9940569248228455 6.315009557332665
H -4.667451613576376 -1.0840182159170562 7.798750373683448
O 3.145258054647888 -1.9251421395984227 -7.981936126571012
H 3.0514444367593745 -2.820824045051044 -8.339595582259566
H 2.929133369520672 -2.0243888830047094 -7.042573497602886
O 1.9151283371063494 7.163442774496629 -5.5060102814017755
H 1.856560294358409 8.126583773723276 -5.417147708417577
H 2.044964179266471 6.85204613255003 -4.59763991102692
O 2.030447917766846 -6.816800864741372 4.846893029595559
H 2.767936189855253 -6.741473668472462 5.470915640511479
H 1.7221871298242877 -7.728738047561919 4.957833579018912
O -3.779828304310952 1.7477952893408046 10.088420148853784
H -4.108123206917945 2.5213645365285977 10.570893395394542
H -2.8172342909446857 1.8588234442809721 10.095309164894092
O -0.832229845828039 6.096748843769396 -0.3750891045525139
H -0.5707293584744195 6.33929069946422 0.5258871993811314
H -1.697116382710524 6.518509429700644 -0.48933108796645963
O -2.7651127032986342 -8.275599632412657 -4.4638623722861865
H -2.5802299221947314 -8.622487128170977 -3.5781678541605477
H -2.1956890724470597 -7.49460675345043 -4.532918841484245
O 1.5013208754261054 5.401259166857886 6.752019440489975
H 1.589430216701928 5.279888576098651 5.794693330651381
H 2.364829911264736 5.135291207366001 7.1021267581066745
O -1.8812765629198462 2.1043427364371095 -9.654136503319393
H -1.9263020011165326 1.631314282714325 -10.498638811654798
H -1.9653746992256258 1.404583940199473 -8.989134943277652
O 2.299454337589842 0.6926095355995059 7.800303835781891
H 3.0674126978332676 0.6611402621624145 8.390402978860045
H 2.6307440126347843 0.32903430154578284 6.965425314863191
O 3.854043804166205 1.083743762649493 -7.29812423132119
H 3.7909789102769156 1.4647060984844769 -8.18686371774783
H 4.558546975241151 1.5958471878654477 -6.8734039608755335
O -3.1031878614121013 1.5215323151380007 -6.359793706881262
H -3.161855902843538 1.6017366578741075 -7.3236882453142105
H -2.2262067415138462 1.1376406264502101 -6.209816271917074
C -5.297468346893007 -5.767500207546007 10.472476806831489
O -5.672248044763291 -6.700261661310851 9.822619510392684
O -4.9226886490227235 -4.8347387537811635 11.122334103270294
O 3.2640263239883565 -17.156023088237752 6.575964981314561
H 3.5683946081044224 -16.515332961811644 5.915780562818985
H 3.384438433683039 -18.014134601001434 6.142251366354992
O -0.77831071529328 14.371498465407274 -11.386861834554498
H -1.2091257785885805 14.492889164205105 -12.24629771720267
H 0.10460097648561195 14.750670614327781 -11.511991248774889
O 12.174202587555502 -3.7057647920837566 -4.661595236206211
H 12.06286666794388 -3.7704158510644383 -3.7011828713977866
H 11.522538045257514 -3.0401328391097118 -4.92848354953505
O 14.780506326540348 -2.577526738138375 -9.473280325662998
H 14.987896653006645 -3.0656869909009687 -10.284240359826805
H 15.603908110769206 -2.1117813047880274 -9.263393124190328
O 3.8610192325501025 6.253772868693189 -18.0782112004844
H 3.3498117414675006 6.875764637344604 -17.53898907770853
H 3.8999620795659666 5.451383058724284 -17.536347756594374
O -0.9292206009807291 -16.002483379617473 0.7998497211501339
H -1.2897345392903938 -16.194828431190096 1.6784852760419116
H -0.14465828579002604 -16.56801125338985 0.7398318748950429
O 4.397806328009953 -0.7922485548610572 14.717162992414014
H 4.494246513270365 -0.7316757929824302 13.754875307734773
H 4.459523244809921 -1.7419825640984026 14.89925713888408
O -1.23644057790567 -15.450119220204702 11.9800510124991
H -0.7684751271282604 -16.192631701425668 11.569379721793535
H -2.158394510651224 -15.74610132439258 12.01689506487556
O -11.516125040286983 5.470647102757094 7.7505072404035795
H -12.483072412062775 5.5239041670124145 7.716686799501751
H -11.231473364637328 5.84108538302027 6.901560334899174
O 0.20637003985585833 2.1448518392634943 14.528379818281035
H 0.09636940255890503 1.7930309260378707 13.632227341460625
H 1.0743508536433906 1.8143487015197408 14.804674818486008
O 6.301106072324301 -4.939661742595328 5.393087144734668
H 6.075395311552308 -4.537051825193304 4.541073492390256
H 6.67084372296737 -4.206592873914021 5.907738529428473
O -9.638248674868915 -6.379330500855785 8.942080089417102
H -9.739947777749181 -6.361994357332877 7.978584314905816
H -10.382100054893963 -5.849210246293796 9.265529597745623
O -7.0412826197708664 11.068857601402911 -3.2115368000936044
H -7.453411318187762 10.450799908002747 -2.5893455268744567
H -7.472694839694883 10.872646609892797 -4.056727126357963
O 17.044901014197695 2.350179570008996 1.1120627477316596
H 17.760856048956747 1.73014480710914 1.3168373504022335
H 16.35108803105723 2.1255531799635983 1.7501289461945624
O -8.181076954814548 -6.534880267101011 -1.1668809868051115
H -8.04434186594326 -6.522095624402472 -2.126103289132592
H -8.977091784656151 -5.997862548537209 -1.0367491116907739
O -8.701380440016925 -0.6176549325221412 -20.37723629377644
H -8.037729402682611 -1.1537565595331927 -20.8367248170947
H -8.531999442442245 0.2835460666793015 -20.69045950651605
O -2.517618179478463 -4.5840187456294395 -15.105386092121421
H -3.149124711004167 -5.013851158748907 -14.509222562398016
H -2.3941749236994587 -5.227670864651687 -15.81913370618458
O -2.845236714339779 18.79287371954021 -6.027161594324397
H -2.7315609577473774 18.653681871218858 -5.0749689622251815
H -3.299478301200433 17.99164104112763 -6.328247495870969
O 4.267194962624918 -13.140440226946424 -5.159441437110655
H 5.090701799259295 -13.61578222477279 -4.972749626848704
H 3.5730026837118363 -13.75728015290887 -4.8827330528211546
O -16.36429320677224 -7.757600506921138 5.7408513045641625
H -17.070880902672293 -7.5748977829372075 6.378284359520917
H -15.58796510198543 -7.318634870889332 6.119778459042849