194

C -5.0710522388059704 1.0783507462686561 0.47044029850746183
C -3.8153522388059704 0.1782507462686569 0.19534029850746193
C -4.11845223880597 -1.3219492537313435 0.5608402985074619
C -2.96945223880597 -2.3874492537313436 0.7034402985074619
C -2.52015223880597 0.7359507462686565 0.7384402985074618
C -2.20305223880597 0.7852507462686571 2.097440298507462
C -1.5755522388059702 1.205650746268656 -0.18965970149253808
C -0.9533522388059701 1.2695507462686564 2.508640298507462
H -2.91125223880597 0.4298507462686567 2.840840298507462
C -0.32655223880597006 1.6562507462686575 0.21554029850746192
H -1.7850522388059702 1.178550746268657 -1.2573597014925382
C 0.004447761194029898 1.6956507462686563 1.569740298507462
H -0.7158522388059702 1.2676507462686573 3.5705402985074617
H 0.3943477611940298 1.9193507462686572 -0.5551597014925382
C -1.76045223880597 -2.1592492537313435 -0.1734597014925381
C -0.5287522388059701 -1.936549253731343 0.464840298507462
C -1.8068522388059702 -2.121249253731343 -1.5681597014925381
C 0.6114477611940299 -1.614449253731343 -0.2582597014925381
H -0.4544522388059702 -1.954049253731343 1.5506402985074619
C -0.6479522388059701 -1.8270492537313432 -2.2998597014925384
H -2.74345223880597 -2.290549253731343 -2.092259701492538
C 0.5698477611940298 -1.5506492537313434 -1.6506597014925382
H 1.5072477611940298 -1.351949253731343 0.2991402985074618
H -0.7173522388059701 -1.7640492537313435 -3.3840597014925375
C 1.7791477611940298 -1.082849253731343 -2.4255597014925376
H 1.4739477611940297 -0.9102492537313429 -3.464259701492538
H 2.1252477611940295 -0.1337492537313434 -2.0010597014925384
C 1.3965477611940298 2.0964507462686566 1.997440298507462
H 1.51704776119403 1.8448507462686567 3.057640298507462
H 2.1256477611940294 1.5207507462686571 1.4165402985074618
C 3.94864776119403 -1.4275492537313434 -3.522959701492538
H 4.81734776119403 -2.087049253731343 -3.615159701492538
H 3.4305477611940303 -1.3641492537313429 -4.484459701492538
H 4.26984776119403 -0.441449253731343 -3.176459701492538
C 2.60904776119403 -3.4296492537313434 -2.8992597014925376
H 1.9825477611940296 -3.869549253731343 -2.119359701492538
H 2.06294776119403 -3.373349253731343 -3.845759701492538
H 3.5215477611940305 -4.019849253731343 -3.0234597014925377
C 3.7281477611940304 -2.060049253731343 -1.156659701492538
H 3.9048477611940298 -1.032549253731343 -0.8295597014925382
H 3.12924776119403 -2.623249253731343 -0.4404597014925382
H 4.68244776119403 -2.5769492537313434 -1.3005597014925383
C 3.1110477611940297 3.755250746268656 2.588740298507462
H 3.40124776119403 4.809350746268656 2.534540298507462
H 2.9823477611940303 3.461750746268656 3.634840298507462
H 3.86514776119403 3.1392507462686563 2.091540298507462
C 1.99744776119403 3.9574507462686572 0.40494029850746194
H 2.67914776119403 3.230350746268657 -0.04295970149253803
H 1.03214776119403 3.981150746268657 -0.10175970149253821
H 2.4399477611940297 4.958250746268657 0.368240298507462
C 0.7418477611940297 4.4992507462686575 2.475440298507462
H -0.18475223880597014 4.424250746268656 1.901240298507462
H 0.57844776119403 4.189650746268656 3.511940298507462
H 1.1210477611940297 5.524350746268658 2.4432402985074617
N 3.00114776119403 -2.025349253731343 -2.490159701492538
N 1.7831477611940298 3.586450746268657 1.862540298507462
C -3.55075223880597 -3.8435492537313434 0.6444402985074619
H -2.62515223880597 -2.2736492537313433 1.7424402985074618
H -4.67195223880597 -1.3478492537313436 1.5102402985074619
H -4.83415223880597 -1.6757492537313432 -0.1945597014925382
H -3.7169522388059697 0.17335074626865676 -0.900559701492538
H -3.9132522388059705 -4.043149253731343 -0.34225970149253815
H -4.35435223880597 -3.9354492537313432 1.3449402985074619
H -2.78115223880597 -4.545049253731343 0.8904402985074619
H -5.24235223880597 1.138950746268657 1.5249402985074618
H -5.92805223880597 0.6501507462686567 -0.006059701492538094
H -4.89895223880597 2.059650746268657 0.08004029850746197
C 1.5724478615348665 2.6375342984058308 -3.572235676039382
O 0.7058458711659465 2.937987482614843 -4.3787741890611045
O 1.4468289374830525 2.6786338399243337 -2.3429423108465834
O 2.7091751312928745 2.245880874497074 -3.8605186865152907
O 0.7365063033609307 -5.007618062420088 0.16588537009479154
H 1.3093851846890865 -4.275001033902413 -0.10623488595781216
H -0.1602324394750304 -4.661325335718985 0.04380785852572733
O 6.28177473763287 6.672627164591699 -0.7639443814625703
H 5.40996805764246 6.506278645763876 -0.3750374004145436
H 6.123963895429925 7.392681170876644 -1.392895818710469
O 9.536793458950509 -4.01753032686859 1.4655188196179423
H 9.520017318912572 -4.0199365640939515 2.434373880010282
H 8.870146786247847 -3.3579784857048782 1.2215197891034193
O 5.923587674624746 -4.348642242855936 4.352495589275245
H 6.387122004544715 -4.132524914601117 5.175536646764874
H 5.968449246697418 -3.5296177398244435 3.8366000115803156
O 7.645098539448902 -5.37849989816327 -0.3799631353413271
H 7.317664600997678 -5.121514378202693 0.49508704343753124
H 8.031014667879134 -4.563284740388411 -0.7341593135413927
O 3.193118515812863 -5.9196397648499035 -4.162843260924593
H 3.183801525484994 -5.8789642186401165 -5.130947620243239
H 4.122964679620767 -5.775390056996627 -3.9314559714379667
O 9.437703027584922 3.8983380904174814 5.463306066771816
H 9.84215121219405 3.35920762265995 6.159529710152249
H 9.766077523224643 3.503931657611452 4.641371944913756
O 1.9550009809641655 -2.773273583801108 7.337797326886629
H 1.208438643461652 -3.3032508726713425 7.6551868453092435
H 1.7739342321033327 -2.6560078341086735 6.393114564946918
O -3.632571435536775 8.963261678606058 1.5832486633076694
H -4.385190128520438 9.51379845351459 1.319730695523925
H -3.65605664181808 8.221155257372885 0.9606023359673275
O -1.5178261890750353 -5.205067322353848 -3.1155271324180767
H -2.014735114522282 -4.442836140328926 -3.4487725402780387
H -0.6962633070341464 -5.191587854795582 -3.6291560637556843
O 2.480660843293836 8.675188313411047 -0.22740783638554563
H 1.865120522955805 8.316084213502048 0.429190759688725
H 2.993460425971605 9.33201841028939 0.26713514065516497
O -2.231379608325574 -5.634467289130242 4.753574959394374
H -1.8062244531161042 -6.021393514691946 3.9735117908808313
H -1.8913816163355854 -4.727450768924114 4.779734887068986
O -1.1668291896448453 -1.8595910427331188 4.311527449287235
H -1.077462683702041 -0.9451357484276799 4.00370851024623
H -0.2817094260353623 -2.0852385998070164 4.634959247900906
O -0.7001435691732338 4.3190335202398 -5.475260716797097
H -0.7566109868610458 3.658645730219279 -6.18213181850623
H -0.5216961585880484 5.148412653159075 -5.943500740538674
O -1.261088440523352 3.095977340184497 7.177342944123098
H -1.664041398683719 3.901930708410626 6.820922632335501
H -0.577559387527872 2.8695479188296455 6.528898887048004
O -1.1400691008820159 8.240735935105207 2.470787696880804
H -1.5330658456738302 8.770217703859128 1.7607384225059493
H -0.8712905137448244 8.897173290020081 3.1309467795789834
O 3.751252862122127 2.507727495080257 -6.971401312372583
H 3.8173136097093954 2.096418480411924 -7.846288864564735
H 3.4172527873521985 1.7972669760412483 -6.403376889270454
O 5.075796008118759 -8.53681462842047 -6.76750931785565
H 5.427772722305869 -8.50036819010911 -7.669591025188452
H 4.172588109390292 -8.868612915886107 -6.881909197267185
O 2.151043621842395 4.927860473327721 -9.299847345108585
H 1.2877207786823401 4.842050860902706 -8.86824829993644
H 2.7280460120990457 5.273708455424726 -8.60240963518924
O 8.327581808911912 3.083723103490802 0.5080201966335491
H 8.607715464702538 3.619396249986262 1.265348904604557
H 7.815431398961049 2.364284410206114 0.9068583448741401
C -9.069584068810732 5.5351928706044164 13.89619677120271
O -8.969663611582938 5.949208080773317 12.7775254319452
O -9.169504526038525 5.121177660435515 15.014868110460217
O -5.044844240914271 -0.46046591959414807 9.194421635161047
H -5.050410493297341 -0.3440622025817166 8.232451496123407
H -5.480843526789946 -1.3152642748199233 9.329278369954714
O -18.983266980954966 7.806684038571164 -3.6683189431056213
H -19.29695015639624 7.798075125367245 -2.7515331944388306
H -18.438238536755698 8.60609292944045 -3.7217171126703334
O 4.188548287023147 5.13287214085094 -15.247629487331123
H 4.1329042755440035 4.731575058373762 -14.367384207604037
H 4.768451203409544 5.89855672439778 -15.119560480989792
O 13.790945048438896 -19.668507682763394 8.555344821844447
H 13.486727371620738 -20.56811092285413 8.748043997840647
H 13.908322919251162 -19.662118155959572 7.59350099164601
O 8.960487737264476 5.823007955864284 12.433109667587269
H 9.302146606654345 5.522197227782579 13.288533235031018
H 8.892216998974561 5.010505832014516 11.909524574853561
O 10.239982829414622 13.370918223502233 -5.537435838335952
H 10.49820428177598 13.402802848975032 -6.470855577305968
H 10.710856796730273 12.598303465480804 -5.190584159816294
O 23.77334227607908 -2.1070350704235263 -0.517234685329055
H 23.14179561476872 -1.896545661495665 0.1869033552687691
H 23.93478498425076 -1.2548425041373257 -0.9492833240779033
O 5.805560735967131 -0.21809320947444 -16.79702963948157
H 5.665907592455467 -0.3799516677850212 -17.742157247733832
H 5.642218106716999 -1.079941190715818 -16.385326849838588
O 10.558525429692004 7.752617160399599 -16.527390378746105
H 10.68442575146639 7.871445280729395 -15.573977381301663
H 10.088794384035145 6.908027583860769 -16.59798171141572
O -11.973042452654962 -8.894603102976886 12.802056926554695
H -11.693563342861909 -9.440809984517548 12.05204570887398
H -11.236876187487166 -8.962811772306802 13.428450374602434
O 9.953120603388598 -3.40326107796023 -6.983163259317857
H 9.980491316312836 -2.498146924578056 -6.638218959000703
H 9.300917579216595 -3.361461702867774 -7.698597373546955
O 19.271896392023248 -7.082358255622523 7.816703640971765
H 18.357993809786105 -7.282748890335952 8.068880207288775
H 19.31007860208696 -7.309233869674898 6.875411168419792
O -6.831212240786429 -14.159927445048591 5.661787605424086
H -6.873137352741351 -13.46082420745822 4.992112829821607
H -7.732032813485743 -14.516227820498377 5.684902158329527
O -7.31636029364032 5.599929981884595 -8.463148019597147
H -6.417869798109621 5.411006962266283 -8.772970999699169
H -7.276605523714358 6.525929810660603 -8.180471845017582
O 3.427864295035275 1.505382924047867 -11.712524924631689
H 2.5621287979870067 1.216307980890229 -12.037955536727413
H 3.2179490990058284 2.217199278037625 -11.089455881131176
O -10.779457907862186 -11.368621428904081 13.856126400821214
H -10.236445806715501 -12.168511485337936 13.790696189706537
H -10.195457116193197 -10.723494297620562 14.282408002713545
O -8.441372036043006 -4.605684746276736 -5.034600710781613
H -8.614459996318041 -4.434970021827526 -5.972611583727156
H -8.529838189559431 -3.7352604456767864 -4.618070734780967
O 1.2078097928451834 8.530284105686052 8.705263928445724
H 0.2925926963293577 8.754411575465426 8.479184516655447
H 1.737590184382683 9.125365596753545 8.153745388384502
O 1.4535396923277837 -20.283405400842163 -9.878829174446349
H 1.433725983573824 -20.344686596763715 -10.845689758435498
H 0.6075141051336885 -20.666696306243182 -9.602621404914515
O 4.284878688598964 4.660666123252214 -5.67999918382072
H 4.267399509340649 4.707169666982219 -4.712270267432969
H 3.467576954149347 4.192020565382933 -5.906607127757018