194

C -5.0710522388059704 1.0783507462686561 0.47044029850746183
C -3.8153522388059704 0.1782507462686569 0.19534029850746193
C -4.11845223880597 -1.3219492537313435 0.5608402985074619
C -2.96945223880597 -2.3874492537313436 0.7034402985074619
C -2.52015223880597 0.7359507462686565 0.7384402985074618
C -2.20305223880597 0.7852507462686571 2.097440298507462
C -1.5755522388059702 1.205650746268656 -0.18965970149253808
C -0.9533522388059701 1.2695507462686564 2.508640298507462
H -2.91125223880597 0.4298507462686567 2.840840298507462
C -0.32655223880597006 1.6562507462686575 0.21554029850746192
H -1.7850522388059702 1.178550746268657 -1.2573597014925382
C 0.004447761194029898 1.6956507462686563 1.569740298507462
H -0.7158522388059702 1.2676507462686573 3.5705402985074617
H 0.3943477611940298 1.9193507462686572 -0.5551597014925382
C -1.76045223880597 -2.1592492537313435 -0.1734597014925381
C -0.5287522388059701 -1.936549253731343 0.464840298507462
C -1.8068522388059702 -2.121249253731343 -1.5681597014925381
C 0.6114477611940299 -1.614449253731343 -0.2582597014925381
H -0.4544522388059702 -1.954049253731343 1.5506402985074619
C -0.6479522388059701 -1.8270492537313432 -2.2998597014925384
H -2.74345223880597 -2.290549253731343 -2.092259701492538
C 0.5698477611940298 -1.5506492537313434 -1.6506597014925382
H 1.5072477611940298 -1.351949253731343 0.2991402985074618
H -0.7173522388059701 -1.7640492537313435 -3.3840597014925375
C 1.7791477611940298 -1.082849253731343 -2.4255597014925376
H 1.4739477611940297 -0.9102492537313429 -3.464259701492538
H 2.1252477611940295 -0.1337492537313434 -2.0010597014925384
C 1.3965477611940298 2.0964507462686566 1.997440298507462
H 1.51704776119403 1.8448507462686567 3.057640298507462
H 2.1256477611940294 1.5207507462686571 1.4165402985074618
C 3.94864776119403 -1.4275492537313434 -3.522959701492538
H 4.81734776119403 -2.087049253731343 -3.615159701492538
H 3.4305477611940303 -1.3641492537313429 -4.484459701492538
H 4.26984776119403 -0.441449253731343 -3.176459701492538
C 2.60904776119403 -3.4296492537313434 -2.8992597014925376
H 1.9825477611940296 -3.869549253731343 -2.119359701492538
H 2.06294776119403 -3.373349253731343 -3.845759701492538
H 3.5215477611940305 -4.019849253731343 -3.0234597014925377
C 3.7281477611940304 -2.060049253731343 -1.156659701492538
H 3.9048477611940298 -1.032549253731343 -0.8295597014925382
H 3.12924776119403 -2.623249253731343 -0.4404597014925382
H 4.68244776119403 -2.5769492537313434 -1.3005597014925383
C 3.1110477611940297 3.755250746268656 2.588740298507462
H 3.40124776119403 4.809350746268656 2.534540298507462
H 2.9823477611940303 3.461750746268656 3.634840298507462
H 3.86514776119403 3.1392507462686563 2.091540298507462
C 1.99744776119403 3.9574507462686572 0.40494029850746194
H 2.67914776119403 3.230350746268657 -0.04295970149253803
H 1.03214776119403 3.981150746268657 -0.10175970149253821
H 2.4399477611940297 4.958250746268657 0.368240298507462
C 0.7418477611940297 4.4992507462686575 2.475440298507462
H -0.18475223880597014 4.424250746268656 1.901240298507462
H 0.57844776119403 4.189650746268656 3.511940298507462
H 1.1210477611940297 5.524350746268658 2.4432402985074617
N 3.00114776119403 -2.025349253731343 -2.490159701492538
N 1.7831477611940298 3.586450746268657 1.862540298507462
C -3.55075223880597 -3.8435492537313434 0.6444402985074619
H -2.62515223880597 -2.2736492537313433 1.7424402985074618
H -4.67195223880597 -1.3478492537313436 1.5102402985074619
H -4.83415223880597 -1.6757492537313432 -0.1945597014925382
H -3.7169522388059697 0.17335074626865676 -0.900559701492538
H -3.9132522388059705 -4.043149253731343 -0.34225970149253815
H -4.35435223880597 -3.9354492537313432 1.3449402985074619
H -2.78115223880597 -4.545049253731343 0.8904402985074619
H -5.24235223880597 1.138950746268657 1.5249402985074618
H -5.92805223880597 0.6501507462686567 -0.006059701492538094
H -4.89895223880597 2.059650746268657 0.08004029850746197
C 0.9875460544602004 -1.7367277822653646 3.5692368341578242
O 0.7533366304366227 -0.5668808229005982 3.307742023571546
O 0.1429680324101944 -2.638205624084147 3.6207841859797143
O 2.1053994283016717 -2.2001544855793655 3.822787439849781
O -2.4712561336271874 -4.6218013343213915 5.757865087401706
H -2.3478780168950464 -5.367751417905637 6.363920918173333
H -2.454183764266488 -3.8447656540010207 6.3365584690931405
O -1.5426986256752928 0.9431525125697284 7.282224186676582
H -2.317116503558126 1.1455376048065378 7.828378543755008
H -1.9004846066453611 0.8770496446993501 6.384125335223917
O 0.17845249572916 8.442969255463606 -0.7625022457073873
H -0.41971387137940264 8.902258460964536 -0.15404700506065816
H 0.21642280858891905 7.539001024212972 -0.4155704994936251
O -5.209578289842475 -7.282046281361252 2.535273978900997
H -5.0997353387119215 -8.182282746277536 2.876560061567671
H -6.164472959030419 -7.200991404794432 2.3918577244484935
O 6.2769565539914876 8.09777052203151 9.238012799034863
H 7.110294876237146 8.560730933436227 9.064282389927053
H 5.625909343364671 8.58045416775437 8.706866894422273
O -6.217533826428246 5.872513393362919 -1.4932663455117838
H -6.84598718009806 5.816608250319824 -0.7578152226337926
H -5.370638633978615 6.064644430383684 -1.0633638659666822
O -1.4688438265336554 0.9825268533011706 -12.091607155892904
H -1.8757198913159971 0.3614898334216391 -12.714288651319247
H -0.5456367190682236 0.6924853299560683 -12.041342896612953
O 4.8829617939021315 -6.494680649383836 1.3701869209913184
H 4.688190093886149 -6.362789108074537 0.4301677918753505
H 5.738321723874028 -6.056980010861783 1.4956440273498524
O -2.87050645187354 4.525054415185108 -0.24036097716541693
H -2.255894727147083 4.221837189613462 0.4446785099047843
H -2.530591243492935 4.123550948388894 -1.0541266446411284
O -2.1660749051255097 -2.3246022363524825 -7.366199071758447
H -2.062299614498953 -2.4589625122202574 -6.4121836828762175
H -1.5770765929330812 -2.985028229609838 -7.761016041966801
O 4.025455599886303 -4.343713794780317 4.66515478475155
H 3.8038445971824855 -5.170437490096563 5.119449680147987
H 4.47599192208722 -3.8177250195625643 5.34288244024644
O -1.6980382593465317 10.967750305169767 -1.5369029886609553
H -1.9489066804130921 11.412231886029584 -2.3605949920748115
H -2.5456847322044975 10.747885923822102 -1.1220330630625117
O 3.966224347194699 -4.478794763939435 2.615883542299454
H 3.272641352574749 -5.127985867218879 2.424936172857396
H 4.270703116257005 -4.197147499647395 1.7401384640905544
O -6.9932251533525935 -0.006666202342715533 -3.6962362387849836
H -7.019164059429157 -0.04276370964162113 -4.664219451458818
H -7.302606931630906 -0.8827223073644226 -3.4209717106969193
O 5.531601572910244 5.85489185396724 5.084575718146936
H 4.9726285589675205 5.648077563832311 4.320544059130261
H 5.472752781716657 5.062362398564428 5.6390086053334505
O -0.5938878912171531 4.975136211536112 -5.996427408546874
H -0.7563331054381747 5.169589291449632 -6.931717154555476
H -1.1958309990158384 5.570856160208997 -5.525530198928006
O -8.086364616330567 0.7069056155613755 1.9984185144982078
H -8.06629686706173 1.500386669224867 2.5542534358699758
H -7.466781660166492 0.10135748231740982 2.4324581014666458
O 8.944952644615329 3.0717569733112007 -6.354214567184081
H 7.979879783100677 3.1574053048156046 -6.37052689928087
H 9.09531523940049 2.1880209685467844 -5.98629649441176
O 8.09886522824612 -0.10177294483539034 1.339665044846364
H 8.01563226417058 -0.7646600771763632 0.637795911483197
H 7.202342667540676 -0.028606737188181075 1.7000203535413747
O -5.033886457399365 5.350940422313739 -6.799344714566585
H -5.683269020891875 5.115681063345952 -6.119695777872085
H -4.21514545655166 4.930465285543786 -6.496317030700598
C 5.850025489268616 -13.371544012679827 -2.996500040359386
O 6.369108940221283 -13.37449589588504 -1.91790747843778
O 5.33094203831595 -13.36859212947461 -4.075092602280993
O -10.368803309519311 9.191302873955715 -20.561991656720075
H -9.494044826622936 8.774486954518299 -20.567417779126778
H -10.519417965679981 9.407204791596964 -19.629434134843578
O 10.886669255385797 4.967888421489724 -8.383314100368885
H 10.144157820211237 4.893033473749083 -7.765219558786645
H 11.329310468123671 5.788403068600065 -8.11914291540857
O -18.511970669965955 -2.7133800826362044 -10.566233730999791
H -18.357439200032704 -2.293108292299795 -9.706897356843722
H -19.361133278139413 -2.3476766873464694 -10.856312747568744
O -12.408895073250038 -11.836673427182639 1.1358682681589816
H -11.632120490595764 -12.293030281260219 0.7790391404540076
H -13.101359561047806 -12.004932944312383 0.47925299851149816
O -15.563728828823606 -6.760949900835522 2.4939672942017737
H -15.511873943798951 -6.8294624816568215 1.5287810665398338
H -15.190850778479462 -5.887643038937094 2.6869932738849966
O 3.375729579172294 4.337969498978108 -13.00730135670788
H 3.6819077099622706 4.466662467135176 -12.096993480726967
H 2.4097431606132096 4.362671215797517 -12.935037889827537
O 2.6048868138996917 -8.528459710914035 -1.3491964754618702
H 2.2630461100975285 -8.22397861788164 -2.203247735111923
H 3.3841619655833632 -7.972876929245015 -1.1974731912194558
O 10.25236078027162 -12.816628379287176 -0.36092506384289424
H 11.089262165165051 -12.328420311428662 -0.3756325905320923
H 9.80581985823372 -12.540249169888911 -1.1752822838992603
O 8.626305223362285 3.8523093856792525 8.84065016879667
H 8.300042031665724 4.349335224656127 8.075480251697657
H 8.556583591330844 4.4807023733501525 9.574968281996195
O 9.725489798266372 3.880702464229295 -13.629334101534544
H 10.675831383898094 3.6914998841718756 -13.624794143538951
H 9.656338449369724 4.742590318702581 -13.191921982867024
O 5.289884102748187 -10.563529060417437 8.421525482507276
H 5.7499882462545635 -9.759736199649819 8.13658940018833
H 4.65810575409427 -10.737131505182402 7.7076065419798825
O 17.437146790060385 -5.637683339963688 10.876375155821005
H 17.31769477920727 -4.90094388429065 11.49436669982282
H 16.756494924075565 -6.275668559433287 11.13838630323598
O 1.314236041136343 -0.37203852310909546 19.842688219647698
H 1.8326839665401389 -1.092776775576933 20.23090913224014
H 1.4043024427580426 -0.507135895967652 18.887387906947218
O 9.098391867435444 14.463698384730048 6.415137770314824
H 8.733680593505674 13.811493493602464 7.032050911330465
H 10.043744865938342 14.253240415119855 6.383879242692152
O 9.096527805473086 -0.5204318905215777 20.01335680693174
H 8.394494454177728 -1.0033470254448678 19.5519356294474
H 9.72285061092067 -1.2117757948484127 20.275511901534905
O -5.117574540098936 -8.866098200824348 -7.830162514480881
H -5.287686335428164 -8.411404389051798 -6.991542891811808
H -5.891699068615918 -8.653577427201926 -8.372866927054877
O 3.526412438308458 -8.441740376968005 -7.255946035686133
H 2.869896596597205 -8.472139361259288 -6.543885498767939
H 4.346104188760023 -8.184506379328328 -6.8077295154640876
O -12.37934540175669 12.394370412567902 -2.059686298940856
H -12.155668319593623 13.202452016056018 -2.5454228962022625
H -13.251637784803318 12.582270447509508 -1.681848344722677
O -0.8009393933320297 -23.259346763173475 -3.4716099610946443
H -0.5341010550950198 -23.14449176047966 -2.5471787919408153
H -0.6781923614831946 -22.380796525215406 -3.86153891597761
O -3.3828176725434354 -8.688038198307748 5.731827080060749
H -3.081046150390022 -9.600152447963366 5.858116037980211
H -4.148228524453907 -8.774026255177153 5.143852398502514