194

C -5.0710522388059704 1.0783507462686561 0.47044029850746183
C -3.8153522388059704 0.1782507462686569 0.19534029850746193
C -4.11845223880597 -1.3219492537313435 0.5608402985074619
C -2.96945223880597 -2.3874492537313436 0.7034402985074619
C -2.52015223880597 0.7359507462686565 0.7384402985074618
C -2.20305223880597 0.7852507462686571 2.097440298507462
C -1.5755522388059702 1.205650746268656 -0.18965970149253808
C -0.9533522388059701 1.2695507462686564 2.508640298507462
H -2.91125223880597 0.4298507462686567 2.840840298507462
C -0.32655223880597006 1.6562507462686575 0.21554029850746192
H -1.7850522388059702 1.178550746268657 -1.2573597014925382
C 0.004447761194029898 1.6956507462686563 1.569740298507462
H -0.7158522388059702 1.2676507462686573 3.5705402985074617
H 0.3943477611940298 1.9193507462686572 -0.5551597014925382
C -1.76045223880597 -2.1592492537313435 -0.1734597014925381
C -0.5287522388059701 -1.936549253731343 0.464840298507462
C -1.8068522388059702 -2.121249253731343 -1.5681597014925381
C 0.6114477611940299 -1.614449253731343 -0.2582597014925381
H -0.4544522388059702 -1.954049253731343 1.5506402985074619
C -0.6479522388059701 -1.8270492537313432 -2.2998597014925384
H -2.74345223880597 -2.290549253731343 -2.092259701492538
C 0.5698477611940298 -1.5506492537313434 -1.6506597014925382
H 1.5072477611940298 -1.351949253731343 0.2991402985074618
H -0.7173522388059701 -1.7640492537313435 -3.3840597014925375
C 1.7791477611940298 -1.082849253731343 -2.4255597014925376
H 1.4739477611940297 -0.9102492537313429 -3.464259701492538
H 2.1252477611940295 -0.1337492537313434 -2.0010597014925384
C 1.3965477611940298 2.0964507462686566 1.997440298507462
H 1.51704776119403 1.8448507462686567 3.057640298507462
H 2.1256477611940294 1.5207507462686571 1.4165402985074618
C 3.94864776119403 -1.4275492537313434 -3.522959701492538
H 4.81734776119403 -2.087049253731343 -3.615159701492538
H 3.4305477611940303 -1.3641492537313429 -4.484459701492538
H 4.26984776119403 -0.441449253731343 -3.176459701492538
C 2.60904776119403 -3.4296492537313434 -2.8992597014925376
H 1.9825477611940296 -3.869549253731343 -2.119359701492538
H 2.06294776119403 -3.373349253731343 -3.845759701492538
H 3.5215477611940305 -4.019849253731343 -3.0234597014925377
C 3.7281477611940304 -2.060049253731343 -1.156659701492538
H 3.9048477611940298 -1.032549253731343 -0.8295597014925382
H 3.12924776119403 -2.623249253731343 -0.4404597014925382
H 4.68244776119403 -2.5769492537313434 -1.3005597014925383
C 3.1110477611940297 3.755250746268656 2.588740298507462
H 3.40124776119403 4.809350746268656 2.534540298507462
H 2.9823477611940303 3.461750746268656 3.634840298507462
H 3.86514776119403 3.1392507462686563 2.091540298507462
C 1.99744776119403 3.9574507462686572 0.40494029850746194
H 2.67914776119403 3.230350746268657 -0.04295970149253803
H 1.03214776119403 3.981150746268657 -0.10175970149253821
H 2.4399477611940297 4.958250746268657 0.368240298507462
C 0.7418477611940297 4.4992507462686575 2.475440298507462
H -0.18475223880597014 4.424250746268656 1.901240298507462
H 0.57844776119403 4.189650746268656 3.511940298507462
H 1.1210477611940297 5.524350746268658 2.4432402985074617
N 3.00114776119403 -2.025349253731343 -2.490159701492538
N 1.7831477611940298 3.586450746268657 1.862540298507462
C -3.55075223880597 -3.8435492537313434 0.6444402985074619
H -2.62515223880597 -2.2736492537313433 1.7424402985074618
H -4.67195223880597 -1.3478492537313436 1.5102402985074619
H -4.83415223880597 -1.6757492537313432 -0.1945597014925382
H -3.7169522388059697 0.17335074626865676 -0.900559701492538
H -3.9132522388059705 -4.043149253731343 -0.34225970149253815
H -4.35435223880597 -3.9354492537313432 1.3449402985074619
H -2.78115223880597 -4.545049253731343 0.8904402985074619
H -5.24235223880597 1.138950746268657 1.5249402985074618
H -5.92805223880597 0.6501507462686567 -0.006059701492538094
H -4.89895223880597 2.059650746268657 0.08004029850746197
C -0.0686168013376256 -4.71835406143871 0.3138691816032252
O 0.6832375673674544 -5.67410527994528 0.1997196516773899
O -0.40959145184736356 -4.2039894021411035 1.3852219475376866
O -0.6048623304138465 -4.117604628897638 -0.6243148281983413
O 0.22774876623547868 -8.268809140679453 7.591015130477516
H 0.7695867355514765 -8.007107421390451 8.350548659710228
H 0.8265824456130968 -8.805165376697111 7.050014061321425
O 4.673907079130112 8.616371946131508 -1.3392903288258506
H 4.622973156584042 8.97095901586702 -2.2396464263841755
H 4.753714977571242 9.404664431497032 -0.7814484146936689
O 0.4500706703761638 7.337519554485947 7.385915063767067
H 0.9519817317590654 7.113091448217971 6.587989836393938
H 0.06239955748685455 6.4939653981670755 7.66356491139591
O 6.830151224343939 0.3889561730674933 5.220404725498153
H 7.76927138754605 0.5967225772956195 5.102702570711761
H 6.762867163112639 0.12889601650707871 6.1514275578572715
O 4.523220463962859 2.425813434720463 -1.9338641707632376
H 4.834044766799456 1.6065708465891662 -1.5201043473655593
H 3.7023360654139927 2.166540527308373 -2.3787105577342325
O 9.459714110050118 1.7358227099057557 0.011545238783776224
H 8.697735589346387 2.2564516765083624 0.3070136296827919
H 9.236341774478245 0.8282192733597658 0.2671283876239817
O 7.8375194655738465 -2.0758503324308557 -2.6591274585363918
H 8.332875636791881 -2.60830377878161 -3.2995046505142245
H 8.156822591091943 -2.3873935894997045 -1.7989250071859524
O 7.615016650062866 -3.4129172934793064 1.5919804596098668
H 6.682157587383294 -3.5485362769270425 1.3675950380575912
H 8.06308481540194 -3.4012011695417597 0.7328765101662873
O -6.723241177978296 -2.847302258574838 -2.4100226958190123
H -6.023353534992234 -2.9343028045000215 -1.7455262329961188
H -6.402722535968419 -3.373614539785069 -3.157836260199484
O -1.5544084188113105 10.83902015732295 0.7653940031032116
H -1.4331704240483676 10.81118023213016 1.726379769954689
H -1.614684920575706 9.906236886471563 0.5099648402129318
O -1.079184957180213 4.200980882232216 -9.48642877686996
H -1.4939660410448707 3.475969699228738 -8.995223327095674
H -0.13322000509271104 4.095778144167836 -9.304646936121646
O 6.073526291966312 -4.540110256104622 -5.733317427678209
H 6.213512019612587 -4.47552493490739 -4.776656521588076
H 5.908278176998927 -5.483182671967618 -5.882546859219233
O -6.092906126178235 -1.8930546455726827 5.385899231304513
H -6.833500813753056 -2.1202974499739016 4.803793078198549
H -5.772837383207305 -2.750870181925142 5.703185300436694
O 3.46334794052479 6.967068933959562 -4.060639891564224
H 2.718004404814457 7.004345043481064 -3.442545349981981
H 4.023965797554954 7.711973725000382 -3.796468706603908
O 0.92902289822637 -3.769476620875553 5.665413836830881
H 0.03821183941596629 -3.4472111861508474 5.869296165596237
H 1.0600858598966818 -4.502925304028997 6.284960020386784
O -3.357993992443172 5.379301996009792 3.415105347191859
H -3.4651550923773904 4.51171811756417 3.8331748024527545
H -3.343977588800203 5.998212129668042 4.160568781026169
O -1.9767453440395457 -1.4764131552939923 6.924318512051368
H -1.2442686927947877 -1.415472011608482 6.292866622128178
H -1.6455975094772068 -1.0190000476274614 7.711767751621462
O 2.3657885910929553 7.443151600818682 -7.982058009861606
H 1.6443315833053278 7.4960820272629975 -7.337336742358705
H 2.8513612173806413 6.6449814332870485 -7.724948008961987
O -5.215279175963327 -5.834675180139598 -2.129179844213259
H -5.291462900553082 -5.4349678375943675 -1.2497496665851187
H -6.1122256724379085 -6.145666223607439 -2.3234309642737516
O 6.031503113673009 1.2114163065775625 2.393458906803127
H 5.2914050259276655 0.8023605309463302 1.920282882644657
H 5.74542816623492 1.212531063502376 3.3192676484259813
C 7.277915472633571 0.9949840583622374 12.330529311299086
O 7.047735469539185 1.549694573507118 11.295091400141121
O 7.5080954757279565 0.4402735432173568 13.365967222457051
O 15.6106264745139 5.624149881208638 0.020428824841490695
H 15.263799907402504 5.177174444724396 -0.7662678437833663
H 16.039804975234553 4.915067398215538 0.5223947511069266
O -11.201589877934152 8.787283203884613 -2.2899132992178837
H -11.128844736452168 8.73825841497788 -1.3248889102186123
H -10.349448604971203 9.153408386245445 -2.570572427083567
O -14.673164873300921 8.394309626020615 -7.469553979549475
H -14.335729932146947 9.132205850929218 -6.939823690955319
H -15.562790429597062 8.24095733355128 -7.117401472417717
O 0.7812542247004806 5.046088837503289 17.89224117032455
H 0.11143679011952923 4.552381150912369 18.388793968556957
H 0.4415329909727346 5.953495777265871 17.8794320593013
O -8.033453067143082 -3.154517138367532 18.302445508503304
H -8.082035013357348 -2.2050424558757964 18.489808735176133
H -7.399687181124819 -3.216837561433872 17.572090176566636
O 7.478761444899727 -6.108052619836746 -20.224248776989583
H 7.135276886522891 -6.891270253252354 -19.768665794687205
H 7.56285420635995 -5.446447916499699 -19.521276822860333
O 19.25352628035592 -0.817979032575824 -13.440963540258364
H 19.22017219099554 -0.7168822890987023 -12.477825798249848
H 18.354024448488666 -0.6029873573715996 -13.73016412525143
O 7.972431773411788 -14.582061407657015 -2.0323832163887223
H 7.97116562840848 -14.728955605133107 -1.0745795577380115
H 7.0774033521744935 -14.26240095461174 -2.2213362905536185
O -11.247628744499593 -12.547293607892334 6.61754956358936
H -10.904625294896796 -13.093287213362935 7.340880036641475
H -10.625859615556022 -11.805671381062346 6.568953604246175
O -16.17443471701974 -5.979467634212384 -8.843146492034624
H -16.7189971433646 -6.7800447807331565 -8.804476695266864
H -16.456067278813542 -5.467267873977999 -8.070296927078223
O -2.658042233127727 -3.6283678811165174 -9.873206646753754
H -3.3094153830593993 -3.495539512128414 -10.578215157936459
H -2.72044313911167 -2.8205784964296186 -9.341657607417266
O -1.1719707795638996 -14.912364628623381 -4.817254801731838
H -1.1873736524383194 -14.706194009789511 -5.763945767325613
H -2.0443760427975355 -14.63178382880473 -4.502381151269662
O -16.796044702483478 -5.1326306587781625 8.770544055115678
H -17.595178586519225 -4.64203459189455 9.014814174950821
H -16.922537123538703 -6.003233221005181 9.176761718886391
O -10.702464448563621 -4.9930492005966745 -13.084323414846375
H -10.593625438795275 -5.569581154918554 -13.855512323284797
H -11.522473027750802 -5.304869986419094 -12.672843558852778
O 7.754401903632612 9.26264295958785 8.615204079810354
H 7.060264158440788 8.661037071064877 8.306642088478798
H 7.770659933882084 9.128722568245848 9.574768016989742
O 7.811887095056301 -4.302219889984578 -16.379087342776206
H 8.037822535670825 -4.522133416174361 -15.462813052744504
H 8.099094489626399 -5.078043243232415 -16.883638610101478
O 8.696536939020929 1.122615181495477 16.06223329965351
H 9.525262129160167 0.9137955953015178 16.518934839557275
H 8.163586628538184 0.3199838821899261 16.16571715458475
O -13.691654632110687 3.7369428380599903 12.831743314013044
H -13.60242236018102 3.150510988467226 12.065517078277487
H -12.882930486675018 3.5800983503191026 13.341965821900189
O -5.511710999266828 6.632916516255905 6.168640463309979
H -6.35097727899697 6.489649867725943 5.705959000501147
H -5.174797170813465 7.459587922463998 5.791724819359199
O -3.5287954184076544 -6.997994961519532 -3.854644933525026
H -3.09752248327415 -6.470366716200592 -3.165747664650349
H -4.157169310315959 -7.551235936398653 -3.3667590657415776