194

C -5.0710522388059704 1.0783507462686561 0.47044029850746183
C -3.8153522388059704 0.1782507462686569 0.19534029850746193
C -4.11845223880597 -1.3219492537313435 0.5608402985074619
C -2.96945223880597 -2.3874492537313436 0.7034402985074619
C -2.52015223880597 0.7359507462686565 0.7384402985074618
C -2.20305223880597 0.7852507462686571 2.097440298507462
C -1.5755522388059702 1.205650746268656 -0.18965970149253808
C -0.9533522388059701 1.2695507462686564 2.508640298507462
H -2.91125223880597 0.4298507462686567 2.840840298507462
C -0.32655223880597006 1.6562507462686575 0.21554029850746192
H -1.7850522388059702 1.178550746268657 -1.2573597014925382
C 0.004447761194029898 1.6956507462686563 1.569740298507462
H -0.7158522388059702 1.2676507462686573 3.5705402985074617
H 0.3943477611940298 1.9193507462686572 -0.5551597014925382
C -1.76045223880597 -2.1592492537313435 -0.1734597014925381
C -0.5287522388059701 -1.936549253731343 0.464840298507462
C -1.8068522388059702 -2.121249253731343 -1.5681597014925381
C 0.6114477611940299 -1.614449253731343 -0.2582597014925381
H -0.4544522388059702 -1.954049253731343 1.5506402985074619
C -0.6479522388059701 -1.8270492537313432 -2.2998597014925384
H -2.74345223880597 -2.290549253731343 -2.092259701492538
C 0.5698477611940298 -1.5506492537313434 -1.6506597014925382
H 1.5072477611940298 -1.351949253731343 0.2991402985074618
H -0.7173522388059701 -1.7640492537313435 -3.3840597014925375
C 1.7791477611940298 -1.082849253731343 -2.4255597014925376
H 1.4739477611940297 -0.9102492537313429 -3.464259701492538
H 2.1252477611940295 -0.1337492537313434 -2.0010597014925384
C 1.3965477611940298 2.0964507462686566 1.997440298507462
H 1.51704776119403 1.8448507462686567 3.057640298507462
H 2.1256477611940294 1.5207507462686571 1.4165402985074618
C 3.94864776119403 -1.4275492537313434 -3.522959701492538
H 4.81734776119403 -2.087049253731343 -3.615159701492538
H 3.4305477611940303 -1.3641492537313429 -4.484459701492538
H 4.26984776119403 -0.441449253731343 -3.176459701492538
C 2.60904776119403 -3.4296492537313434 -2.8992597014925376
H 1.9825477611940296 -3.869549253731343 -2.119359701492538
H 2.06294776119403 -3.373349253731343 -3.845759701492538
H 3.5215477611940305 -4.019849253731343 -3.0234597014925377
C 3.7281477611940304 -2.060049253731343 -1.156659701492538
H 3.9048477611940298 -1.032549253731343 -0.8295597014925382
H 3.12924776119403 -2.623249253731343 -0.4404597014925382
H 4.68244776119403 -2.5769492537313434 -1.3005597014925383
C 3.1110477611940297 3.755250746268656 2.588740298507462
H 3.40124776119403 4.809350746268656 2.534540298507462
H 2.9823477611940303 3.461750746268656 3.634840298507462
H 3.86514776119403 3.1392507462686563 2.091540298507462
C 1.99744776119403 3.9574507462686572 0.40494029850746194
H 2.67914776119403 3.230350746268657 -0.04295970149253803
H 1.03214776119403 3.981150746268657 -0.10175970149253821
H 2.4399477611940297 4.958250746268657 0.368240298507462
C 0.7418477611940297 4.4992507462686575 2.475440298507462
H -0.18475223880597014 4.424250746268656 1.901240298507462
H 0.57844776119403 4.189650746268656 3.511940298507462
H 1.1210477611940297 5.524350746268658 2.4432402985074617
N 3.00114776119403 -2.025349253731343 -2.490159701492538
N 1.7831477611940298 3.586450746268657 1.862540298507462
C -3.55075223880597 -3.8435492537313434 0.6444402985074619
H -2.62515223880597 -2.2736492537313433 1.7424402985074618
H -4.67195223880597 -1.3478492537313436 1.5102402985074619
H -4.83415223880597 -1.6757492537313432 -0.1945597014925382
H -3.7169522388059697 0.17335074626865676 -0.900559701492538
H -3.9132522388059705 -4.043149253731343 -0.34225970149253815
H -4.35435223880597 -3.9354492537313432 1.3449402985074619
H -2.78115223880597 -4.545049253731343 0.8904402985074619
H -5.24235223880597 1.138950746268657 1.5249402985074618
H -5.92805223880597 0.6501507462686567 -0.006059701492538094
H -4.89895223880597 2.059650746268657 0.08004029850746197
C 1.872397372487117 -2.902994179311423 3.1650789961813883
O 0.7124721357925653 -3.209327394662805 3.3942272125208826
O 2.753054857273779 -2.75681829835613 4.020477424059401
O 2.3450685699190963 -2.6917582889790213 2.042310221164156
O -6.303460839391613 -5.6235818016928825 -3.089331208514683
H -6.0619363148878564 -5.616786909070185 -2.1509351884903642
H -5.82287679357614 -4.868288344269436 -3.46018523961178
O 7.072314030517193 -5.453590234242132 -6.44244151136609
H 6.631720370785251 -5.759429256687616 -5.6354055293593355
H 7.283069127043032 -6.2710272918421985 -6.91819448345405
O 3.285490947071602 7.479673381172661 -4.577612204814368
H 4.154379971548437 7.325726388426602 -4.977986459066738
H 2.678556785423282 6.96478994826565 -5.130321819568934
O -3.472743360290436 8.222224956176655 4.443554336365083
H -3.454288115265787 8.344509953948414 5.404633490311855
H -3.2082635259740515 7.298233618065629 4.3200538560592445
O 3.13885083516832 2.1233828408722206 -7.4682576434509595
H 2.455579130754376 1.6952041685855046 -6.930884254226994
H 3.8972824938879578 1.523728798157019 -7.403772045003762
O 3.0908848374365125 -4.0046622161232115 7.988668408425229
H 3.2294758266688155 -3.66854325575468 7.090456885962737
H 2.743840841064361 -3.240797705978477 8.473470862032253
O 3.841592997478365 5.491897569025658 -8.207955235605255
H 3.7150713999526257 5.527808640880949 -9.167991712608988
H 3.3062534348984505 6.2271646528321085 -7.873656248906965
O -7.564260406930857 3.9287594771657277 -7.215841250334559
H -8.15076368671974 4.698892899613161 -7.259151426116806
H -7.128694011969878 3.9172973466367633 -8.081354092206032
O -3.8535942220314077 4.3812325796514395 3.8207945253447892
H -3.436360288971825 5.24921545569384 3.9279809465967146
H -3.338906211297631 3.800819792375416 4.401465854302388
O 3.0780115653934015 -9.54286648768675 0.7799928321042584
H 3.134393972727025 -9.004779933911026 1.5838903639384034
H 2.1451648667429817 -9.484643979669023 0.5243189760353637
O 2.1572671611981775 8.005220030393115 5.548907593108148
H 2.9627071975239314 8.235144977196253 6.036112091877548
H 2.4840201027484174 7.553182540496454 4.756533585952315
O -5.85634203546472 -3.2685326814961515 -5.693966124207124
H -5.136061120092153 -2.715273762888465 -5.356227573207815
H -5.4057711243257724 -3.936327903092246 -6.232480135490806
O -3.9188021414129572 0.5596063143611394 7.515354196534062
H -2.969170361597511 0.6227403990575753 7.333197870774861
H -4.221633980223344 1.4799540201564585 7.5006939734794384
O -9.496355746045602 5.269182613074401 8.928586316877507
H -9.569332034303425 5.234510504953132 7.962957162817555
H -9.671967064968156 4.358551621439973 9.209431124629363
O -0.14081951091096756 8.914358875421932 -7.251598940154106
H -0.5063000037582075 8.763108436725185 -6.367000346981936
H 0.2584840889962754 9.795274997828349 -7.192392819815417
O 6.488972563996902 -6.5978206333574665 1.5962339334766642
H 7.3108776832147475 -6.28823254979595 1.1868507994564568
H 6.001294645134376 -7.003980342452765 0.864000034738333
O -3.2272270281404194 7.546656996787332 -4.245435827449506
H -3.099729292858687 8.481237946726328 -4.46740459193937
H -2.977410014138904 7.0774709650738306 -5.055632020639959
O 10.150767367902407 -0.47480380015435575 -0.5049699767290532
H 9.437162662078523 -1.0733692691439034 -0.23765918371962336
H 10.110177702414715 -0.47985832719882304 -1.4731067827187618
O -8.133673420000136 6.18764038432493 -2.717521172140577
H -8.501802281193466 6.655604419369477 -1.9530225388119558
H -8.818566216107747 5.542443931494293 -2.9490494412453705
O -7.433815528543444 -0.9865474764034304 2.6958478408531934
H -8.38532982211858 -0.8181507152713324 2.6235260815934165
H -7.380842439632134 -1.9098857484091323 2.984988345799695
C -2.1943606229679977 -9.160277627327625 20.329143987060753
O -1.255805449786636 -9.113809708777769 21.070610895789763
O -3.1329157961493594 -9.206745545877482 19.587677078331748
O -1.0914812609656401 -17.293255684906285 -3.219296189655197
H -1.0953860992423294 -17.39414125493044 -2.2555668651563856
H -1.2743109723809312 -18.185973006517212 -3.5488277126080354
O 6.150835769939625 11.897354578030516 -7.860690270315028
H 5.681901703438103 12.613508102111679 -7.4066062162892585
H 6.227962274748155 11.204452244135194 -7.187711962909482
O -16.42836102947047 -0.9985995038588826 -1.029341731195189
H -16.61343210740401 -1.2663612064184706 -0.11664258927880189
H -15.932194712606815 -1.7456318583153934 -1.3963888558333202
O 11.58024455232259 -8.353369956176133 1.0828656273831927
H 11.596648873867398 -7.725472303621117 1.8207292957193948
H 11.85532536084061 -7.824250191534244 0.3191086190681245
O 5.67276368855442 -14.904926630220992 -1.730801095309706
H 5.306950553648409 -15.500874093272378 -1.0599846312058108
H 6.51008724272728 -14.605236515422046 -1.346045270117775
O -14.171701374995017 -14.46232371854028 5.860142570628246
H -14.239506070287947 -15.422663618371672 5.7500646119441114
H -13.555903142754515 -14.354495176439858 6.60049889495996
O -4.846398441227651 -6.938692088139007 -8.87733776186163
H -4.774204730052448 -7.8178531783062315 -8.47630010464883
H -4.123797468794916 -6.436373857258763 -8.471768811047333
O -5.2823176412335595 3.342489580877052 -13.11997796830539
H -5.380667279898276 3.657885975512986 -12.2090335025309
H -4.731983400716055 2.549477462625945 -13.034972390130118
O -1.3252920955839196 -6.733824794410971 13.14254171191922
H -1.363068782571222 -7.277590347921349 13.943702932670588
H -0.7423652349080478 -7.23114820173398 12.549391100412155
O -20.020219111102627 -5.379534818631667 4.282621863829281
H -19.33235954048404 -5.911036920529816 3.854460581499522
H -19.98993797961596 -5.66033019547675 5.209551717549785
O 16.407922080526674 8.867018858562021 12.447076807209866
H 16.45358936460879 8.899726858891713 11.479703020724518
H 17.060600340465708 9.523028751757305 12.734520807552315
O 14.598153134157254 -5.186698741958335 8.746318809371957
H 14.548281587704858 -5.483733341759986 9.667324038605278
H 15.200814525113316 -4.428538584857649 8.777211661878098
O 5.130510289171225 -15.250449969710363 5.740854585981124
H 5.0367421998809245 -15.210775969010104 4.777215194922786
H 4.546192495367825 -15.977597294939311 6.003135785378089
O -3.77259272373435 -1.881154007207539 -14.625959178528136
H -3.623168526833938 -1.3373861302811463 -15.413966959139236
H -3.191099723418657 -1.4890604110859877 -13.957310955047117
O -6.8940719671984905 12.392105196953597 11.953770617760519
H -7.590351002100581 12.897829703861202 11.508343198792092
H -6.122426457028904 12.977307358657146 11.92115803011995
O 7.046937330521526 9.367299747145763 12.475198910510517
H 6.36982995049018 9.943424567935237 12.089747041041207
H 7.815836931473653 9.491630466240121 11.898746639940663
O -1.7961248900331737 5.771885644396943 -12.295006695296493
H -1.5594924242860442 4.860021601713358 -12.068122582333112
H -1.6074648772646634 5.833580301825188 -13.243459705796747
O 10.018949279597937 11.028824532816936 -4.367807562972187
H 10.630582504401808 10.85977740622818 -5.100129366695185
H 10.457414423544964 10.631853879392962 -3.6002630612241435
O 6.647919964020451 -15.619263894442 -3.6091088970921863
H 7.464821361170926 -15.873757830231618 -4.063941064907868
H 6.160124583551229 -16.451851238206174 -3.520701170639102
O -1.688010624411059 -4.876338538186873 17.883536397373422
H -1.163183399820297 -5.342545633360253 18.5514994844062
H -1.3914450154198716 -3.9564559734096223 17.95301193898707