194

C -5.0710522388059704 1.0783507462686561 0.47044029850746183
C -3.8153522388059704 0.1782507462686569 0.19534029850746193
C -4.11845223880597 -1.3219492537313435 0.5608402985074619
C -2.96945223880597 -2.3874492537313436 0.7034402985074619
C -2.52015223880597 0.7359507462686565 0.7384402985074618
C -2.20305223880597 0.7852507462686571 2.097440298507462
C -1.5755522388059702 1.205650746268656 -0.18965970149253808
C -0.9533522388059701 1.2695507462686564 2.508640298507462
H -2.91125223880597 0.4298507462686567 2.840840298507462
C -0.32655223880597006 1.6562507462686575 0.21554029850746192
H -1.7850522388059702 1.178550746268657 -1.2573597014925382
C 0.004447761194029898 1.6956507462686563 1.569740298507462
H -0.7158522388059702 1.2676507462686573 3.5705402985074617
H 0.3943477611940298 1.9193507462686572 -0.5551597014925382
C -1.76045223880597 -2.1592492537313435 -0.1734597014925381
C -0.5287522388059701 -1.936549253731343 0.464840298507462
C -1.8068522388059702 -2.121249253731343 -1.5681597014925381
C 0.6114477611940299 -1.614449253731343 -0.2582597014925381
H -0.4544522388059702 -1.954049253731343 1.5506402985074619
C -0.6479522388059701 -1.8270492537313432 -2.2998597014925384
H -2.74345223880597 -2.290549253731343 -2.092259701492538
C 0.5698477611940298 -1.5506492537313434 -1.6506597014925382
H 1.5072477611940298 -1.351949253731343 0.2991402985074618
H -0.7173522388059701 -1.7640492537313435 -3.3840597014925375
C 1.7791477611940298 -1.082849253731343 -2.4255597014925376
H 1.4739477611940297 -0.9102492537313429 -3.464259701492538
H 2.1252477611940295 -0.1337492537313434 -2.0010597014925384
C 1.3965477611940298 2.0964507462686566 1.997440298507462
H 1.51704776119403 1.8448507462686567 3.057640298507462
H 2.1256477611940294 1.5207507462686571 1.4165402985074618
C 3.94864776119403 -1.4275492537313434 -3.522959701492538
H 4.81734776119403 -2.087049253731343 -3.615159701492538
H 3.4305477611940303 -1.3641492537313429 -4.484459701492538
H 4.26984776119403 -0.441449253731343 -3.176459701492538
C 2.60904776119403 -3.4296492537313434 -2.8992597014925376
H 1.9825477611940296 -3.869549253731343 -2.119359701492538
H 2.06294776119403 -3.373349253731343 -3.845759701492538
H 3.5215477611940305 -4.019849253731343 -3.0234597014925377
C 3.7281477611940304 -2.060049253731343 -1.156659701492538
H 3.9048477611940298 -1.032549253731343 -0.8295597014925382
H 3.12924776119403 -2.623249253731343 -0.4404597014925382
H 4.68244776119403 -2.5769492537313434 -1.3005597014925383
C 3.1110477611940297 3.755250746268656 2.588740298507462
H 3.40124776119403 4.809350746268656 2.534540298507462
H 2.9823477611940303 3.461750746268656 3.634840298507462
H 3.86514776119403 3.1392507462686563 2.091540298507462
C 1.99744776119403 3.9574507462686572 0.40494029850746194
H 2.67914776119403 3.230350746268657 -0.04295970149253803
H 1.03214776119403 3.981150746268657 -0.10175970149253821
H 2.4399477611940297 4.958250746268657 0.368240298507462
C 0.7418477611940297 4.4992507462686575 2.475440298507462
H -0.18475223880597014 4.424250746268656 1.901240298507462
H 0.57844776119403 4.189650746268656 3.511940298507462
H 1.1210477611940297 5.524350746268658 2.4432402985074617
N 3.00114776119403 -2.025349253731343 -2.490159701492538
N 1.7831477611940298 3.586450746268657 1.862540298507462
C -3.55075223880597 -3.8435492537313434 0.6444402985074619
H -2.62515223880597 -2.2736492537313433 1.7424402985074618
H -4.67195223880597 -1.3478492537313436 1.5102402985074619
H -4.83415223880597 -1.6757492537313432 -0.1945597014925382
H -3.7169522388059697 0.17335074626865676 -0.900559701492538
H -3.9132522388059705 -4.043149253731343 -0.34225970149253815
H -4.35435223880597 -3.9354492537313432 1.3449402985074619
H -2.78115223880597 -4.545049253731343 0.8904402985074619
H -5.24235223880597 1.138950746268657 1.5249402985074618
H -5.92805223880597 0.6501507462686567 -0.006059701492538094
H -4.89895223880597 2.059650746268657 0.08004029850746197
C 2.9884267842073124 -1.1521982566994564 4.074419186874655
O 2.001678958437427 -0.6075870785834903 4.545060123905786
O 3.595826014517928 -2.096696837345757 4.59173927180776
O 3.532305585248939 -0.8431107001214697 3.0079722277875307
O -0.7809364569835572 5.943837719319825 -4.691481951351404
H 0.15365897540076365 5.689592693036946 -4.662186878783085
H -1.034749431622304 6.010375649418405 -3.7586831402119243
O -2.8360603882762563 2.4925117053898878 -8.473579626650661
H -3.0989924321511237 1.7588199666963007 -9.049366505431836
H -2.0167647390031167 2.8214589860581403 -8.87296699490743
O 5.860158405297787 10.010986812912154 0.7314218890816542
H 5.471941921094841 10.895672717890829 0.6566812185925186
H 5.732236566940365 9.77719364434328 1.6630541673448023
O -6.83145695999383 -2.0131847233783047 10.17656693372668
H -6.406777308401013 -2.0866365700090324 11.044449055128853
H -7.768587270311311 -1.8815487646041849 10.384943276294358
O -6.643463123836554 -3.5156903079928212 7.617228117704869
H -6.656974350029595 -3.4854713510152777 8.585665838111273
H -6.629609698660561 -2.5831941860863514 7.354129258831846
O -3.0186488784471215 -3.542876760093404 -5.852960620752924
H -3.230475675901263 -3.4307568798052523 -4.914064515092402
H -2.7239553731231165 -2.6633004959369337 -6.13307359394838
O -3.5203561933517458 -4.508605122358354 4.656565644966807
H -3.7824973264326145 -3.7012536695968477 5.123933824211997
H -3.304465608295109 -4.202157783932387 3.7630091395595984
O 10.051362704866486 -1.2808453323196733 -1.765576721604508
H 10.71090189467396 -1.0317624010173738 -2.4303572172133663
H 9.59650234991592 -2.040044197800193 -2.160141145301494
O 0.22950816300993557 -0.5200716364976765 7.7651797347303475
H 0.5482919531770652 -0.9320102662283956 8.58227876016255
H 0.6345841270871697 0.36016062358479867 7.773339142612984
O -0.5002850594963176 3.7389219290011404 -3.900446446847284
H -0.09832501617195334 3.8309238413072286 -3.0235592656188777
H -0.17597089691115736 2.882775624878258 -4.2179299490697035
O 4.970923058454119 6.600672184368989 5.791548049649977
H 5.09477160203129 6.353338480619586 4.862863531558167
H 4.154157025252773 6.146580073816557 6.047781432413767
O 9.121325229345292 -6.125607636011935 0.1639368784597468
H 8.167353983612989 -6.193446865248824 0.31983446725607156
H 9.199103986940184 -5.440344529635944 -0.5167443128529852
O 0.12296436809606526 -2.5346164130807476 -7.458425049523851
H -0.5488594207441384 -3.1562245229515713 -7.140268623545662
H -0.11144767542037437 -2.392070814282142 -8.387776269686386
O -4.828666256187823 -3.1489678767333644 -2.5944739314484453
H -5.030264481625386 -3.7979384364386917 -3.2852435927945267
H -5.698413923055169 -2.8947355858844137 -2.2511564652913876
O 7.278842761785189 -3.447633452394859 1.7640870472985184
H 7.363151118782069 -4.229163255325695 2.3307179897746373
H 6.343505504252811 -3.205255011344061 1.8372912157972863
O -2.0030593290847234 -8.583259576209128 -6.82753590408419
H -1.8852285715723016 -8.452594251618807 -7.780431408551367
H -1.9279637576234467 -7.690706569925015 -6.4578445051849265
O 7.137453973757229 -0.39053982831143896 -4.255801635999661
H 7.347092013081724 -0.26819401084850103 -5.193911837584478
H 6.704777151765079 0.4386953119767161 -4.002578820830775
O -6.439397643852557 1.475760674516472 -2.1989694326830955
H -6.472633955147334 0.8857916613496015 -2.9669533309611955
H -7.36650905480715 1.5640062615897596 -1.9313146319791445
O 2.5102702057190163 -0.24152284001905322 -7.446662005803203
H 2.2173229094176214 -0.7694414381173447 -6.688736420886294
H 2.4023894352980215 0.6744812387283061 -7.149575803849
O 3.5928199214960155 -9.40436130641683 -0.3521149150240768
H 3.8036240085915436 -9.138911465918094 0.5556655517976206
H 4.440401161954716 -9.340634150723268 -0.8174178644556257
C -7.396163265901796 -13.12934094682736 1.7079740179778393
O -7.561042374641726 -12.40038320207473 2.642989388528659
O -7.231284157161865 -13.85829869157999 0.7729586474270187
O -3.6285606902075265 -2.1609577383033565 8.384972696480608
H -3.281132647157201 -3.0103038428079767 8.073729533398993
H -4.58965113404257 -2.259981696984238 8.311071690559672
O -16.86011526265478 7.9292923326348275 1.8484735820648615
H -15.924190756024673 8.102376932420409 2.03028226201788
H -17.05719989138244 7.136774654442348 2.3700436379266625
O 5.166018860147815 10.081846663003047 10.360278719719327
H 4.992220688505946 9.995760314468008 11.309673628611222
H 4.315582501792843 9.870755490369332 9.946563284276008
O -2.1439883446804258 12.31757538306721 -11.949689904357726
H -2.379762429858638 12.406582102187262 -11.014031985238852
H -1.5262186593285205 11.571200696162936 -11.965418442393906
O 13.271086855384043 -11.18800204005316 5.783948090355784
H 12.461436033118003 -10.911011564515926 6.2386009022524975
H 13.776981269427898 -11.651360254599533 6.4682959194249054
O -13.227237840118566 -4.750304634989989 -2.9862802635339856
H -12.980687841533987 -4.9254197709318905 -3.9068861207073993
H -12.928953935949586 -3.8411940165159724 -2.83296183609781
O -3.5681741322995615 10.550868575956603 6.734538623478539
H -4.0205247590870625 11.210612583762488 7.281424453893979
H -4.284222452596773 9.98266128150016 6.413015346209177
O -16.35945842096917 5.241303246482124 0.8996287758336858
H -16.982964332652145 5.872324788304769 0.5097319321017173
H -15.711051532988892 5.80185430309321 1.3516386925965036
O -2.560257217583078 2.388984590023205 -20.63148840385548
H -2.3366432141401963 1.7787831517679997 -21.350250074449797
H -1.7998302346211175 2.3347782494594362 -20.03334592874938
O -0.9246385781389606 -5.85075537841194 14.250948850928442
H -1.5089600170113404 -5.3123328846140545 14.805599219310704
H -0.7138165951407092 -6.615897427661884 14.806892805166893
O 9.587015196306044 -6.6540238080817975 4.654260228069412
H 9.255056029313574 -7.551643415800247 4.502439583264286
H 9.85268855478247 -6.657216513586533 5.586123639480879
O -11.201784007971801 -7.245484095776832 -2.207525025883804
H -11.2511463392057 -7.611329893195977 -1.3115966974635516
H -10.904585065508178 -6.33322880497407 -2.071786242550255
O 6.604958048167958 11.30327736667817 -5.675529470501121
H 7.2761161482882635 11.728408733346127 -6.230306437054291
H 7.0352755759612515 11.217929545195435 -4.811524540571889
O -11.962268077706003 7.507864838042734 -15.348763885975375
H -12.763048601784732 6.978202985708693 -15.4798220079605
H -11.460260106149253 7.012646926420224 -14.684151848165559
O -10.69982282795784 11.738580069443168 -8.905960226363113
H -11.504898262889759 12.193724106142858 -8.61671153263072
H -9.983106461538103 12.318659561372899 -8.607988117855225
O -17.45042540377172 -2.9553837621776218 6.077633162860344
H -17.95402563810115 -2.562117356117671 6.806121800210327
H -18.118278313115567 -3.4315035396478013 5.561644409802
O 10.01074689429981 0.47004099465725746 0.992064966750041
H 9.415918756158662 0.9714031261773681 1.569804402874274
H 10.044553387466877 0.9953020260437504 0.17848035884097957
O 6.60591989654135 -1.2795358661539518 0.03379010233641644
H 6.462846411565766 -1.626188954266258 -0.8597024669103257
H 5.711456469259263 -1.1054127121280672 0.36330223987744925
O 5.52534900309697 8.604006274099321 -7.803356921599788
H 5.601127920984677 8.490728904854436 -8.76272814803965
H 6.393162478051295 8.944229093898564 -7.538573708620661
O -5.859851016735301 16.77543035144975 7.572574247592594
H -5.7815300610813125 16.6559656285066 6.614158176787453
H -5.557368128240253 15.931003328899124 7.939192646004311