194

C -5.0710522388059704 1.0783507462686561 0.47044029850746183
C -3.8153522388059704 0.1782507462686569 0.19534029850746193
C -4.11845223880597 -1.3219492537313435 0.5608402985074619
C -2.96945223880597 -2.3874492537313436 0.7034402985074619
C -2.52015223880597 0.7359507462686565 0.7384402985074618
C -2.20305223880597 0.7852507462686571 2.097440298507462
C -1.5755522388059702 1.205650746268656 -0.18965970149253808
C -0.9533522388059701 1.2695507462686564 2.508640298507462
H -2.91125223880597 0.4298507462686567 2.840840298507462
C -0.32655223880597006 1.6562507462686575 0.21554029850746192
H -1.7850522388059702 1.178550746268657 -1.2573597014925382
C 0.004447761194029898 1.6956507462686563 1.569740298507462
H -0.7158522388059702 1.2676507462686573 3.5705402985074617
H 0.3943477611940298 1.9193507462686572 -0.5551597014925382
C -1.76045223880597 -2.1592492537313435 -0.1734597014925381
C -0.5287522388059701 -1.936549253731343 0.464840298507462
C -1.8068522388059702 -2.121249253731343 -1.5681597014925381
C 0.6114477611940299 -1.614449253731343 -0.2582597014925381
H -0.4544522388059702 -1.954049253731343 1.5506402985074619
C -0.6479522388059701 -1.8270492537313432 -2.2998597014925384
H -2.74345223880597 -2.290549253731343 -2.092259701492538
C 0.5698477611940298 -1.5506492537313434 -1.6506597014925382
H 1.5072477611940298 -1.351949253731343 0.2991402985074618
H -0.7173522388059701 -1.7640492537313435 -3.3840597014925375
C 1.7791477611940298 -1.082849253731343 -2.4255597014925376
H 1.4739477611940297 -0.9102492537313429 -3.464259701492538
H 2.1252477611940295 -0.1337492537313434 -2.0010597014925384
C 1.3965477611940298 2.0964507462686566 1.997440298507462
H 1.51704776119403 1.8448507462686567 3.057640298507462
H 2.1256477611940294 1.5207507462686571 1.4165402985074618
C 3.94864776119403 -1.4275492537313434 -3.522959701492538
H 4.81734776119403 -2.087049253731343 -3.615159701492538
H 3.4305477611940303 -1.3641492537313429 -4.484459701492538
H 4.26984776119403 -0.441449253731343 -3.176459701492538
C 2.60904776119403 -3.4296492537313434 -2.8992597014925376
H 1.9825477611940296 -3.869549253731343 -2.119359701492538
H 2.06294776119403 -3.373349253731343 -3.845759701492538
H 3.5215477611940305 -4.019849253731343 -3.0234597014925377
C 3.7281477611940304 -2.060049253731343 -1.156659701492538
H 3.9048477611940298 -1.032549253731343 -0.8295597014925382
H 3.12924776119403 -2.623249253731343 -0.4404597014925382
H 4.68244776119403 -2.5769492537313434 -1.3005597014925383
C 3.1110477611940297 3.755250746268656 2.588740298507462
H 3.40124776119403 4.809350746268656 2.534540298507462
H 2.9823477611940303 3.461750746268656 3.634840298507462
H 3.86514776119403 3.1392507462686563 2.091540298507462
C 1.99744776119403 3.9574507462686572 0.40494029850746194
H 2.67914776119403 3.230350746268657 -0.04295970149253803
H 1.03214776119403 3.981150746268657 -0.10175970149253821
H 2.4399477611940297 4.958250746268657 0.368240298507462
C 0.7418477611940297 4.4992507462686575 2.475440298507462
H -0.18475223880597014 4.424250746268656 1.901240298507462
H 0.57844776119403 4.189650746268656 3.511940298507462
H 1.1210477611940297 5.524350746268658 2.4432402985074617
N 3.00114776119403 -2.025349253731343 -2.490159701492538
N 1.7831477611940298 3.586450746268657 1.862540298507462
C -3.55075223880597 -3.8435492537313434 0.6444402985074619
H -2.62515223880597 -2.2736492537313433 1.7424402985074618
H -4.67195223880597 -1.3478492537313436 1.5102402985074619
H -4.83415223880597 -1.6757492537313432 -0.1945597014925382
H -3.7169522388059697 0.17335074626865676 -0.900559701492538
H -3.9132522388059705 -4.043149253731343 -0.34225970149253815
H -4.35435223880597 -3.9354492537313432 1.3449402985074619
H -2.78115223880597 -4.545049253731343 0.8904402985074619
H -5.24235223880597 1.138950746268657 1.5249402985074618
H -5.92805223880597 0.6501507462686567 -0.006059701492538094
H -4.89895223880597 2.059650746268657 0.08004029850746197
C 2.4930697857862523 -1.4054132242464115 2.936759079324391
O 3.0009560599785656 -1.2456098843619254 1.8375366615904678
O 3.072628399261898 -1.2537149495822888 4.018300068427492
O 1.3209274828482958 -1.743563937186867 3.1377190290685273
O -4.659592593593002 -3.3805268976411345 -3.4279857408351573
H -5.3744321788666145 -2.8618718591617665 -3.826694500816445
H -4.645936150861394 -4.198371966410971 -3.9475094547893708
O 4.637858736600984 -3.585037777014335 2.133585861101404
H 3.9154909235011055 -3.0286062692541664 1.8056589230968463
H 5.264924271948134 -3.61362250830245 1.3953896325706847
O 2.6296502410699922 1.0061637661463598 6.244560211521103
H 1.9821858415891833 1.726004478771993 6.204728606587627
H 3.4087420720933252 1.3669920430741602 5.795360013722812
O 6.379157717356677 -0.961342124147538 1.8752900986441234
H 5.456740784229723 -1.1502814024923307 1.6463440187929657
H 6.344234443726003 -0.0820562187499091 2.2809976359514654
O 3.1245213922480497 -4.589654785249299 -8.169178651386378
H 2.220263704087332 -4.241545497136924 -8.158916398605944
H 3.4470296105951848 -4.429950058760496 -7.269487152184739
O -6.327248938109591 2.6865480185050483 -2.506548510622146
H -6.237126131841146 3.4258237165662835 -3.1264813125824666
H -7.215273668977632 2.7991763354060186 -2.135483982677484
O 3.1779108240453096 8.23068764655821 -3.3118839264866895
H 3.2496290175191715 7.9852234893779155 -2.3772336147847057
H 4.096557815386948 8.363297234304069 -3.5902081022904215
O -8.14047893048491 -2.727974464175958 -1.8173138387318348
H -8.036795114702878 -2.5576140948389345 -0.8690552411940997
H -8.662802735891969 -1.9759496582036813 -2.134486469656148
O -6.397204192874799 -0.14398187972791376 3.981330499923305
H -6.359130527218575 -0.38038510304636297 4.920282718562862
H -5.907077718424723 0.6903441486508755 3.9299684350036173
O -9.987350535590512 3.280302482372549 5.395096822117731
H -10.485957910470491 4.063658008565553 5.118127216929402
H -10.586697955386049 2.825088935391257 6.0054452810566765
O 4.596282363040004 6.331965358627295 4.480695774058135
H 3.98349675161847 7.051141253902474 4.695747356218981
H 4.978083747828527 6.596240794631695 3.6301970140365523
O 8.366795205110162 1.074294151549823 -2.502309910529851
H 8.946246577035046 0.4388301360278204 -2.94883980813025
H 7.48856310798209 0.6684104736312202 -2.556428002452024
O 7.670042614426183 -5.930693622186898 -1.9174734077119469
H 7.947032660874342 -6.0890932379979565 -1.0025125163184634
H 7.228317798606436 -5.068943072872763 -1.8824431044617937
O 0.9375203404359578 -6.546739756458804 -8.965021973710662
H 0.15042442334271344 -6.324816176680039 -8.445216915122998
H 1.059695261049605 -7.49562544496415 -8.811232561777386
O -6.724975906560778 -1.5166645938798275 -4.971756803769281
H -6.058374280272702 -1.9642959870527323 -5.5141918363549145
H -6.873670985534114 -0.675979594576539 -5.430123959808566
O -1.6108939659916324 -8.378288090731221 -5.823005591246463
H -1.8712277192675604 -8.901461935240059 -5.050035461016896
H -1.0863071486686495 -7.65416078771756 -5.449628751550826
O 7.5814305977975645 -5.188824724537576 3.5631399381422266
H 7.542556783351554 -5.1998182345702 2.5949791425160136
H 8.442743291049272 -5.583062306290833 3.7672945802075826
O -4.100068354528644 4.225237245276875 6.72710199065162
H -4.101897588517761 4.2818400438451985 7.694448947021074
H -5.039712830395775 4.191164945251257 6.49286006092223
O -1.4161483850515972 -0.3759009698246012 9.107939779612352
H -1.7680264366485747 0.49446190581842453 9.34797656514057
H -0.7593578021619707 -0.18189099846689594 8.422412095604416
O -8.445928123075088 4.996146521392689 0.11608715089462707
H -8.513813331702487 5.931688435437243 -0.12705947650429117
H -7.5299150402847665 4.7643505818993255 -0.09874445500022189
C 6.5779608409717785 -7.035168988066597 12.970614036505282
O 5.61197476358767 -6.566970476833401 12.441011062874013
O 7.543946918355886 -7.503367499299793 13.500217010136552
O -7.434738287072397 1.9317388153077286 12.482672920311757
H -7.509925964675571 2.626861557558719 11.81176417596413
H -8.263687839166884 1.9961173451301577 12.980327408164774
O -14.809318492131132 -7.793832429350186 -10.407317298187053
H -15.227766889666626 -8.662362168100023 -10.504910271331218
H -15.343153359199475 -7.212350806324133 -10.969332779366272
O -10.293294952027278 2.933680988688697 -7.443168212337678
H -10.769605876250289 2.211700011779178 -7.880019135819131
H -9.556297446882612 2.491075842523993 -6.9960694466280655
O 9.71671796987141 -6.180344124576838 -11.110556986297503
H 10.474647103698363 -6.170402776544228 -11.714222418963336
H 9.748815518342639 -5.312717858056667 -10.680259004282245
O -1.1731326764480419 -2.7345618700150998 -7.93580089966689
H -1.070579826922379 -2.6942564854246815 -8.898518794964982
H -0.29995956365240817 -2.4863386297266765 -7.596808447875558
O 17.329715277047686 2.1874888035064646 -9.187706240821935
H 17.09203631889125 1.9785537543810325 -8.27183386161366
H 17.170051872677842 3.140555308889772 -9.259356627572318
O -6.527636442964425 -3.0593220236376553 -14.122611516317114
H -7.4551655468148805 -3.0641768175524007 -14.403028258660395
H -6.544202288126087 -3.483744968126413 -13.2516622174107
O -15.033235718275275 16.283897477625906 0.5226326883375725
H -14.121914195705461 16.33388424035012 0.1971150037897207
H -15.501776638850787 15.791457627919739 -0.16797164445191637
O 7.470198333469709 -5.255038827126257 18.366376940866687
H 7.2274294443495695 -5.64918563517212 17.515096189831738
H 7.33972116514871 -4.304603624939519 18.229956343847068
O -2.272215880077644 3.493931280251919 13.928407327706612
H -1.9379176422660236 4.392358202067301 14.069973959556712
H -3.002559318012247 3.611854303408393 13.302584215656967
O 1.4168962911966143 7.688753293005442 -10.433470300716618
H 2.373989542969892 7.713749023130818 -10.284087979856505
H 1.3200444358462142 7.166294501277706 -11.243790282798745
O 9.464968113959188 7.2595400309898555 -3.668509500714981
H 8.908585544628133 6.811133004851813 -3.0140349539565823
H 8.980802533155368 8.074849456922337 -3.8680494081283747
O 3.7985437029340616 5.264227416861978 -16.161324623632694
H 4.5433795812949285 5.2923211788530775 -16.780515718322842
H 3.8480388297840795 4.376612955824235 -15.775769510484423
O 13.8976430228401 -4.1507972946336 8.71344124778173
H 14.194708707978968 -4.3664227423297195 9.61022717648424
H 14.56439222304063 -4.55962727574517 8.141370015437131
O -11.865227491544703 -3.736949506267517 13.45677461769634
H -11.827855135940986 -3.763181576451941 12.488847687380591
H -10.935854122177211 -3.681989111439253 13.725487177155019
O -6.844724854599287 12.631190539775407 -12.03987480677008
H -6.799001623446432 12.763713823518405 -12.998683610598514
H -6.886651844745343 13.530329055249503 -11.681051728097138
O -15.570085396361016 10.21092373897272 5.320868534699318
H -15.971428346846654 11.091234837697561 5.266613926993159
H -14.666276691136764 10.384045819356107 5.624382148800218
O 3.2325792891150456 -1.3706503044333087 10.50234197845981
H 2.499371052077356 -1.0745266752503575 11.062416825493315
H 4.023369995818841 -1.159707772581633 11.021105171783041
O -15.510364053795595 -3.6657196240333363 8.947450179055492
H -16.299453114391632 -3.119365407299974 8.814022741077629
H -15.48058465887233 -3.80371166168365 9.90611243943874
O 16.846894065925902 -3.3020309998219783 -7.741182710520599
H 17.146327627124407 -3.2567649088411477 -8.661648831752283
H 17.65804550251384 -3.181483556430038 -7.224981581973796