194

C -5.0710522388059704 1.0783507462686561 0.47044029850746183
C -3.8153522388059704 0.1782507462686569 0.19534029850746193
C -4.11845223880597 -1.3219492537313435 0.5608402985074619
C -2.96945223880597 -2.3874492537313436 0.7034402985074619
C -2.52015223880597 0.7359507462686565 0.7384402985074618
C -2.20305223880597 0.7852507462686571 2.097440298507462
C -1.5755522388059702 1.205650746268656 -0.18965970149253808
C -0.9533522388059701 1.2695507462686564 2.508640298507462
H -2.91125223880597 0.4298507462686567 2.840840298507462
C -0.32655223880597006 1.6562507462686575 0.21554029850746192
H -1.7850522388059702 1.178550746268657 -1.2573597014925382
C 0.004447761194029898 1.6956507462686563 1.569740298507462
H -0.7158522388059702 1.2676507462686573 3.5705402985074617
H 0.3943477611940298 1.9193507462686572 -0.5551597014925382
C -1.76045223880597 -2.1592492537313435 -0.1734597014925381
C -0.5287522388059701 -1.936549253731343 0.464840298507462
C -1.8068522388059702 -2.121249253731343 -1.5681597014925381
C 0.6114477611940299 -1.614449253731343 -0.2582597014925381
H -0.4544522388059702 -1.954049253731343 1.5506402985074619
C -0.6479522388059701 -1.8270492537313432 -2.2998597014925384
H -2.74345223880597 -2.290549253731343 -2.092259701492538
C 0.5698477611940298 -1.5506492537313434 -1.6506597014925382
H 1.5072477611940298 -1.351949253731343 0.2991402985074618
H -0.7173522388059701 -1.7640492537313435 -3.3840597014925375
C 1.7791477611940298 -1.082849253731343 -2.4255597014925376
H 1.4739477611940297 -0.9102492537313429 -3.464259701492538
H 2.1252477611940295 -0.1337492537313434 -2.0010597014925384
C 1.3965477611940298 2.0964507462686566 1.997440298507462
H 1.51704776119403 1.8448507462686567 3.057640298507462
H 2.1256477611940294 1.5207507462686571 1.4165402985074618
C 3.94864776119403 -1.4275492537313434 -3.522959701492538
H 4.81734776119403 -2.087049253731343 -3.615159701492538
H 3.4305477611940303 -1.3641492537313429 -4.484459701492538
H 4.26984776119403 -0.441449253731343 -3.176459701492538
C 2.60904776119403 -3.4296492537313434 -2.8992597014925376
H 1.9825477611940296 -3.869549253731343 -2.119359701492538
H 2.06294776119403 -3.373349253731343 -3.845759701492538
H 3.5215477611940305 -4.019849253731343 -3.0234597014925377
C 3.7281477611940304 -2.060049253731343 -1.156659701492538
H 3.9048477611940298 -1.032549253731343 -0.8295597014925382
H 3.12924776119403 -2.623249253731343 -0.4404597014925382
H 4.68244776119403 -2.5769492537313434 -1.3005597014925383
C 3.1110477611940297 3.755250746268656 2.588740298507462
H 3.40124776119403 4.809350746268656 2.534540298507462
H 2.9823477611940303 3.461750746268656 3.634840298507462
H 3.86514776119403 3.1392507462686563 2.091540298507462
C 1.99744776119403 3.9574507462686572 0.40494029850746194
H 2.67914776119403 3.230350746268657 -0.04295970149253803
H 1.03214776119403 3.981150746268657 -0.10175970149253821
H 2.4399477611940297 4.958250746268657 0.368240298507462
C 0.7418477611940297 4.4992507462686575 2.475440298507462
H -0.18475223880597014 4.424250746268656 1.901240298507462
H 0.57844776119403 4.189650746268656 3.511940298507462
H 1.1210477611940297 5.524350746268658 2.4432402985074617
N 3.00114776119403 -2.025349253731343 -2.490159701492538
N 1.7831477611940298 3.586450746268657 1.862540298507462
C -3.55075223880597 -3.8435492537313434 0.6444402985074619
H -2.62515223880597 -2.2736492537313433 1.7424402985074618
H -4.67195223880597 -1.3478492537313436 1.5102402985074619
H -4.83415223880597 -1.6757492537313432 -0.1945597014925382
H -3.7169522388059697 0.17335074626865676 -0.900559701492538
H -3.9132522388059705 -4.043149253731343 -0.34225970149253815
H -4.35435223880597 -3.9354492537313432 1.3449402985074619
H -2.78115223880597 -4.545049253731343 0.8904402985074619
H -5.24235223880597 1.138950746268657 1.5249402985074618
H -5.92805223880597 0.6501507462686567 -0.006059701492538094
H -4.89895223880597 2.059650746268657 0.08004029850746197
C 2.4313650861896208 -1.1592314962724668 2.33918005578649
O 1.21600788228991 -1.0648634990195642 2.263173170417118
O 3.0533072588696886 -2.2084996864535658 2.541307894087102
O 3.2274303924133596 -0.22005229840942886 2.2257303007041362
O -7.825724383373368 0.41023655113446944 -8.775352338466718
H -7.854868167637219 0.8655097261072133 -7.920457998276645
H -7.226913731438753 0.9534292171000822 -9.309514743612205
O 3.557427084158089 -6.538328272258169 -4.746813046146408
H 3.527073904366462 -6.588460942152244 -5.714042469182034
H 3.1422523838891236 -7.364343238631695 -4.4564835989945255
O -1.365624480380569 7.341767442387738 -3.0138389832778314
H -1.4965887703178127 7.856686593905334 -3.8241932138841963
H -1.8415463497897593 6.514729024990833 -3.182562943247019
O -6.771591182637364 -5.193870587633678 2.515071766527973
H -7.2166298971008604 -5.333164184151146 3.3644863846609008
H -6.93728686571913 -6.014245531453901 2.026715506754401
O 5.1315132342968655 3.442523773110782 -7.429148906914864
H 4.975942937059508 3.4895362499316134 -6.4738714254778476
H 5.728392411638788 4.18512194485972 -7.605911876087607
O -3.51497166834003 7.531095779776338 3.195036047253047
H -3.4289526342411873 7.7376816175697325 2.2522262179152825
H -3.8346983210541135 8.357368915559292 3.587476510161311
O -1.6354775345702786 -1.673727078274369 8.007998650391881
H -1.5865648469871299 -1.5632208437618011 7.046560520283006
H -2.351776853771139 -1.078638908892474 8.275855515665274
O -10.131030812290057 1.224767269256879 2.080070022835204
H -9.424679523777334 0.8919990317391853 2.6539171402940154
H -9.844202456590457 0.9771995301973075 1.188217090315725
O 1.8431088882848135 -6.475664914943101 0.6348845185897389
H 1.455123042989463 -7.2985808045356855 0.9684167949986324
H 2.7978332343205348 -6.639121526460389 0.6621847665364125
O 0.9517998466338269 1.7126431076677595 5.736047604493625
H 1.3634751119613846 2.0456419879307095 6.547590935783525
H 0.3873639971256353 2.443706123559375 5.4429247925437165
O -7.449574648004205 -6.793026934355318 -1.1112279017288178
H -7.643055171960919 -6.013223985413378 -0.5695268729584337
H -6.506337232024817 -6.955150269747679 -0.9596325669794283
O -0.942508616019232 -4.302335107076579 -5.538919414933174
H -0.5433831368649119 -4.65795884625982 -4.730712779895349
H -0.4435008081101955 -3.489122530944289 -5.708148425348359
O -0.8693236632545669 -6.462575302246844 -2.10812119700755
H -1.520269403545678 -6.7616083077155995 -2.7606671813926984
H -0.7982803229802831 -7.206039730284084 -1.490727131320221
O 2.101659315878923 0.5807916374987361 -6.044054434767718
H 2.2241167591417272 0.03331627414620608 -6.834144466353709
H 3.0004721738263633 0.8551824260655152 -5.807819200651266
O 0.32872988866024055 2.3914925403032132 -8.093078415532206
H -0.23840137070253054 1.6809678243135682 -8.42846493810196
H 1.2252104362575733 2.102591971555656 -8.32072075222932
O 5.575327881706073 -7.550050338236575 -1.2454144095611173
H 6.001538079220021 -6.8018214252999165 -1.6897855588054749
H 6.250978246430845 -8.244555968178371 -1.256389787751886
O -3.595901445883338 -7.6529617992240775 2.669424402579862
H -3.596417280841311 -7.897688479743985 1.7318339041979698
H -3.0745078351164032 -6.8366926256992535 2.6979775688581524
O 9.766077698511562 2.8208657245281668 0.620414727523805
H 9.440391753389319 2.002490430612074 1.0243428156256122
H 9.656899291766894 2.6719448049268486 -0.330828973903853
O -0.17583386275280471 4.300046831591599 -4.8429967838938595
H -1.0763970535752776 4.1942342457482935 -4.50129955985948
H -0.0877510574360385 5.255439201019987 -4.978749441862455
O 2.6008694180010274 -2.978859299405663 7.422472658184457
H 3.1812694744964256 -3.2967321055144794 6.714616733255771
H 2.7088339482160424 -3.6359031993274185 8.126460526042322
C 1.9356816852436884 -7.1114890833335584 -19.966969209948708
O 1.2857682465704416 -7.110302963658875 -20.972170370240537
O 2.5855951239169364 -7.112675203008242 -18.961768049656882
O -6.21323703889273 6.306194328216736 -7.301132109242355
H -6.3079510587015495 5.355983373496288 -7.136524233121829
H -6.66495208493394 6.443310930284022 -8.14736759592293
O 3.976444288630404 -7.2734238736510175 11.274119365029499
H 4.245315231594712 -7.5801221090283075 10.39513588091507
H 3.4008942441082795 -6.515527134120526 11.091645742936802
O -17.91198474010704 -2.1838919404758173 -5.935000995153676
H -18.275732052594073 -2.657583649768441 -6.698068104984712
H -18.673540525807727 -1.70916710794145 -5.569445167760613
O 9.725343835638807 7.212036507110302 -16.285916252456342
H 10.59750710103381 6.829537539415687 -16.464782501670882
H 9.381094541771711 6.67793900957512 -15.554346548942958
O -9.24946046844301 6.785201007368838 4.764803579262777
H -9.455457853211742 6.905410270846734 3.82561128407369
H -8.372541966192506 6.372935565876163 4.761185504971123
O -7.663623794593303 -17.12153966425216 12.103150609532538
H -7.374360094842462 -16.222302398904688 12.31917424138068
H -7.85119125133107 -17.520695308764488 12.96596876240536
O -14.61113481811054 -18.179739864705788 2.6101920609927305
H -15.131432777900402 -18.730384935868344 2.006000538755867
H -14.5719270669398 -18.700502972917675 3.4264214905489236
O -10.919208035093332 -4.229587909377757 -10.115902010523325
H -11.854395224554887 -4.133799759688907 -10.350884792756803
H -10.571222635661407 -3.3267049300554334 -10.167578230704821
O -13.375320371542097 1.603907674063981 1.60620150718003
H -13.40021069960651 2.556025180725605 1.7845833503628485
H -12.600290154742968 1.492926886228682 1.0352607290955151
O 13.52016522430964 -8.503935895866597 -10.846391937859837
H 13.157915645352167 -8.835127377865447 -10.010895198370964
H 14.154735026190728 -9.185964826567051 -11.113074611703102
O -0.3841528539125916 -15.35833667537808 9.026591418352696
H -0.3735400417749748 -15.390675991546008 8.058186082892218
H -0.17082766648329795 -16.265122407096225 9.293413354221258
O -3.776186128455804 -0.6080659979978291 12.912687257705679
H -3.573323015676824 -1.452945308620809 13.341631152469159
H -4.325148540064301 -0.8566795224219771 12.15387665523996
O -10.664873784382452 -9.117094477043146 2.1126902935607097
H -10.515618894592276 -9.113677406635702 3.0701236637769114
H -9.818115904297365 -9.411472926395378 1.744852876525974
O 0.5176816993502267 -11.310838832912896 -2.529742154977842
H -0.4341336654956476 -11.247602874475824 -2.3594010803544236
H 0.6835386148732674 -12.26418747783855 -2.580533779204663
O 3.6633466661681764 3.0763317862767465 -21.67429565393523
H 3.1126776893471657 2.7335884088253657 -22.394197044460434
H 3.144705631000818 2.894884424319379 -20.87614136071916
O -12.583332698111242 -9.395221836040935 8.422535822237176
H -12.710620023412346 -10.294367816642945 8.760621313326254
H -11.635413118669728 -9.232690761372817 8.540832335197818
O -12.981682113811823 -16.43532521660337 -5.092170395525277
H -12.888362305490324 -15.74257297685864 -4.421086865252404
H -12.202129205773177 -16.995548461141652 -4.960226755483451
O -5.92832160384785 16.195471462075595 11.57025922638542
H -6.5093262090606645 16.34248425631484 12.331697499623294
H -6.334238863603445 16.717406715710595 10.86189723308999
O -14.0269175306653 14.292213209584752 10.228215760483193
H -14.007619460710538 14.397542285586171 9.265147368755631
H -13.601021829281112 15.096782441939986 10.5602445938543
O -4.532829318143393 1.7269622790062722 10.862010762720084
H -4.6922081112924925 1.8832130943325325 9.919062492715724
H -3.5682515148832588 1.6631333983639736 10.928924735504589