194

C -5.0710522388059704 1.0783507462686561 0.47044029850746183
C -3.8153522388059704 0.1782507462686569 0.19534029850746193
C -4.11845223880597 -1.3219492537313435 0.5608402985074619
C -2.96945223880597 -2.3874492537313436 0.7034402985074619
C -2.52015223880597 0.7359507462686565 0.7384402985074618
C -2.20305223880597 0.7852507462686571 2.097440298507462
C -1.5755522388059702 1.205650746268656 -0.18965970149253808
C -0.9533522388059701 1.2695507462686564 2.508640298507462
H -2.91125223880597 0.4298507462686567 2.840840298507462
C -0.32655223880597006 1.6562507462686575 0.21554029850746192
H -1.7850522388059702 1.178550746268657 -1.2573597014925382
C 0.004447761194029898 1.6956507462686563 1.569740298507462
H -0.7158522388059702 1.2676507462686573 3.5705402985074617
H 0.3943477611940298 1.9193507462686572 -0.5551597014925382
C -1.76045223880597 -2.1592492537313435 -0.1734597014925381
C -0.5287522388059701 -1.936549253731343 0.464840298507462
C -1.8068522388059702 -2.121249253731343 -1.5681597014925381
C 0.6114477611940299 -1.614449253731343 -0.2582597014925381
H -0.4544522388059702 -1.954049253731343 1.5506402985074619
C -0.6479522388059701 -1.8270492537313432 -2.2998597014925384
H -2.74345223880597 -2.290549253731343 -2.092259701492538
C 0.5698477611940298 -1.5506492537313434 -1.6506597014925382
H 1.5072477611940298 -1.351949253731343 0.2991402985074618
H -0.7173522388059701 -1.7640492537313435 -3.3840597014925375
C 1.7791477611940298 -1.082849253731343 -2.4255597014925376
H 1.4739477611940297 -0.9102492537313429 -3.464259701492538
H 2.1252477611940295 -0.1337492537313434 -2.0010597014925384
C 1.3965477611940298 2.0964507462686566 1.997440298507462
H 1.51704776119403 1.8448507462686567 3.057640298507462
H 2.1256477611940294 1.5207507462686571 1.4165402985074618
C 3.94864776119403 -1.4275492537313434 -3.522959701492538
H 4.81734776119403 -2.087049253731343 -3.615159701492538
H 3.4305477611940303 -1.3641492537313429 -4.484459701492538
H 4.26984776119403 -0.441449253731343 -3.176459701492538
C 2.60904776119403 -3.4296492537313434 -2.8992597014925376
H 1.9825477611940296 -3.869549253731343 -2.119359701492538
H 2.06294776119403 -3.373349253731343 -3.845759701492538
H 3.5215477611940305 -4.019849253731343 -3.0234597014925377
C 3.7281477611940304 -2.060049253731343 -1.156659701492538
H 3.9048477611940298 -1.032549253731343 -0.8295597014925382
H 3.12924776119403 -2.623249253731343 -0.4404597014925382
H 4.68244776119403 -2.5769492537313434 -1.3005597014925383
C 3.1110477611940297 3.755250746268656 2.588740298507462
H 3.40124776119403 4.809350746268656 2.534540298507462
H 2.9823477611940303 3.461750746268656 3.634840298507462
H 3.86514776119403 3.1392507462686563 2.091540298507462
C 1.99744776119403 3.9574507462686572 0.40494029850746194
H 2.67914776119403 3.230350746268657 -0.04295970149253803
H 1.03214776119403 3.981150746268657 -0.10175970149253821
H 2.4399477611940297 4.958250746268657 0.368240298507462
C 0.7418477611940297 4.4992507462686575 2.475440298507462
H -0.18475223880597014 4.424250746268656 1.901240298507462
H 0.57844776119403 4.189650746268656 3.511940298507462
H 1.1210477611940297 5.524350746268658 2.4432402985074617
N 3.00114776119403 -2.025349253731343 -2.490159701492538
N 1.7831477611940298 3.586450746268657 1.862540298507462
C -3.55075223880597 -3.8435492537313434 0.6444402985074619
H -2.62515223880597 -2.2736492537313433 1.7424402985074618
H -4.67195223880597 -1.3478492537313436 1.5102402985074619
H -4.83415223880597 -1.6757492537313432 -0.1945597014925382
H -3.7169522388059697 0.17335074626865676 -0.900559701492538
H -3.9132522388059705 -4.043149253731343 -0.34225970149253815
H -4.35435223880597 -3.9354492537313432 1.3449402985074619
H -2.78115223880597 -4.545049253731343 0.8904402985074619
H -5.24235223880597 1.138950746268657 1.5249402985074618
H -5.92805223880597 0.6501507462686567 -0.006059701492538094
H -4.89895223880597 2.059650746268657 0.08004029850746197
C 3.3661626044438218 -1.3635221153310981 2.4762540134502036
O 4.514586997517784 -1.7325279776204168 2.284599152857479
O 2.9986951748945407 -0.18508784148596347 2.5461955214946697
O 2.3937127405732292 -2.111435889619266 2.629924547021521
O 2.8913197447926278 4.3882178241957455 -7.041610559909394
H 3.4292211106653454 4.1788387088801 -6.263285522690429
H 3.073988548864169 5.3253351247410485 -7.207155772276765
O 7.144652782927809 5.754385281971018 -6.9889707006598405
H 8.038659474462403 5.9663599402694985 -6.681097128181443
H 7.171956263780361 4.798740705808517 -7.146957751662532
O -2.446419096876892 -0.7285119605774346 7.449619368959473
H -2.236607393868587 -1.4653854194120224 6.856353904057034
H -2.103429576503349 0.050196372365663766 6.98601019582017
O -6.44189873824332 5.239683898394725 -0.16349752628085035
H -7.318750601493606 5.231226121791483 -0.5758403846274357
H -6.62221029630409 5.070578649252094 0.7734406259160305
O 8.97291069740158 1.7908929558103264 4.887267217364904
H 9.0849116981649 2.0202680882827977 5.822045362879256
H 9.870194308060038 1.840916666191407 4.524856270036553
O -4.882832369104052 -6.408922511164943 5.770095763309081
H -4.728540374328467 -6.462248090642127 4.814942519153152
H -5.831096752154119 -6.223746106945491 5.844030217111274
O -6.710868143671707 -0.49611980685022194 6.153504587805846
H -7.6115045959697865 -0.8472017812629749 6.085956198229392
H -6.83138688881967 0.38504671370355936 6.538189835018553
O -9.78476020307742 2.6362539603231525 -2.037345734429297
H -9.656983823875994 1.691951439416756 -1.8614670750416384
H -9.676555955376504 2.712285790250037 -2.9972795581470812
O -3.3217654810602246 6.286354187636961 -5.571660727861465
H -2.5992601473331387 5.818839195228224 -5.126258514677726
H -2.979063980614296 7.184418098251703 -5.694130472465863
O 7.628053352603915 3.9176340953787547 -3.234808076923856
H 6.705053863001037 4.209867478344215 -3.2752920116806394
H 8.022514121584718 4.2752517486038455 -4.044420490450755
O -3.819383568230376 0.1071997672484285 -4.815975725154574
H -3.79737986516229 0.5839232843201686 -3.9726383773381486
H -3.3399826924186597 0.6880008437845764 -5.425735394258238
O 0.1176967727484769 -1.358987169853275 9.459147926311152
H 0.32943182399626914 -2.2479306426004912 9.7815066197463
H 0.5873356283495753 -1.2985665561319713 8.613718663127512
O -2.9018446747166884 -2.6259753345337296 -5.146005166749898
H -3.195183033274483 -3.5452292964125434 -5.057167574094965
H -3.7236739453378562 -2.129700788744128 -5.277421183473903
O -2.0902363820307275 8.020723596688844 -3.1321020102690835
H -2.182457112273591 7.10424381726504 -2.831224115233958
H -1.3570384306936845 8.368311418439124 -2.602417750897467
O -0.3411117244730373 -8.329410333033877 6.309491087139012
H 0.23647637316055548 -7.696219495337245 6.761629019001674
H -0.41309350929266 -7.978913776464065 5.408973052457371
O 5.3038674764731475 5.566864611316591 2.730352786959795
H 4.940295733224615 6.332292501235875 3.200356073911
H 5.354141121015567 4.877454093545992 3.40943131183869
O -2.827608205918234 1.684307515589165 5.895418970980619
H -2.866794258870163 2.6290345508287847 5.6834693565874606
H -2.161163560224035 1.334908243888378 5.2848998251215455
O 6.197492112780196 -5.196419121088669 0.48378850060996514
H 6.979475394563926 -4.63790580117457 0.35915954976274334
H 6.218922469484398 -5.801354809075759 -0.2728854698100025
O 7.012962786434269 -2.0548040297645325 3.40310713495711
H 7.03543944267625 -1.2996462722017443 2.7963131682625466
H 6.155571616196855 -2.470737605503814 3.2274894078574494
O 5.561979632822419 6.411340513312235 -0.9207968667088813
H 4.95704276527853 6.12785533888913 -0.21890307198742187
H 5.483806042499668 7.377182457920133 -0.9212117306446674
C 2.938689128023205 14.173854019312452 13.132629913618155
O 3.426428201632071 15.223064576921074 12.825895404347067
O 2.450950054414338 13.124643461703831 13.439364422889243
O -11.47045644029649 6.3264398618243325 1.0632744436999102
H -11.30525913134851 6.658461342243072 1.9585056666568033
H -11.784905981143096 7.10479270656338 0.579280353190545
O 15.878740226933768 10.161493205990418 4.2138702851587215
H 16.468777834863914 10.007558475269061 4.966948685330852
H 15.776546658782745 11.124786007980902 4.189675315394709
O -0.9556523539168214 -11.514149324058767 -11.419103237048642
H -0.8473684184502823 -11.090447373801172 -12.283810472804067
H -0.7212734005185286 -10.818480268405693 -10.786589983819365
O -21.857003398074998 -3.699796912120746 3.7223724624103425
H -22.263218819202667 -3.7114154494808798 4.602043649916039
H -21.73571057525757 -2.7572524757223498 3.5330051451472753
O -0.012643269245384836 -14.99566378914231 -7.020915359651715
H -0.0032146437714795084 -14.071453924887622 -7.311973059663256
H 0.9220550511354686 -15.251197374860642 -7.022807645872875
O -8.643595000711597 13.813643164933353 -11.1713478502913
H -9.479513206427342 14.301288591859986 -11.122255612101183
H -8.843691919056226 13.063975354665807 -11.751797108898499
O 9.447949169902838 0.09450804320303874 8.152100109543142
H 9.18208963475218 0.7937281770791254 7.536164018011087
H 8.748604596275559 -0.5707924053945925 8.066927198744745
O -18.236005596367292 3.09328975053485 -5.445239195095846
H -18.357597767812102 3.354319461689614 -6.3704668376994364
H -17.76175912053711 2.2500710426402417 -5.5003249021277325
O 10.501535232787578 6.002659094774479 11.513486571397626
H 9.672275625688354 5.516049189246568 11.393042971419227
H 10.300347757220818 6.892464791274926 11.186788903131644
O -15.114111900359543 -0.46277174875820126 -5.233596143055537
H -15.085221343808 -0.3957328424473978 -6.19984584043339
H -15.019580829056952 -1.4117401180029026 -5.061884597050518
O 5.745649456601531 10.898579726244542 18.620623613505995
H 6.671844015907952 11.126715272119348 18.450079871552237
H 5.556555554291009 10.194729691689103 17.982030966143622
O 1.9605528906192087 -10.778204674294322 6.941069647065628
H 1.5863592515897194 -10.28914779668452 7.689247331758521
H 1.7580075628832537 -10.222600124026648 6.173449351454453
O -17.878038150214408 -2.578569788889345 -6.7451983830437845
H -17.954005914605467 -2.6609692031352674 -7.707698560812782
H -17.257041839346837 -3.2803269895634255 -6.498495408819828
O 13.757558269380656 4.299631313500839 1.781093067717156
H 13.449733594234349 4.03238415219267 2.6601779788854665
H 14.466332519041487 3.6702354295916937 1.5799418096153135
O 14.139051753794604 -2.8283740377505664 7.438466729737215
H 14.772640240151066 -2.57290595772261 8.125685069817973
H 14.405153788432296 -2.3041083437298244 6.668208893986984
O -5.219702636489837 14.28729755247184 9.356059953334931
H -5.035445408747696 14.310069480596006 10.307110987830079
H -5.565468496341408 15.171768086117421 9.163394986167045
O -14.448245498559753 -14.555862553357303 6.86244019945502
H -13.711877635871872 -14.154327542438413 7.347722965177076
H -15.132493405334701 -14.681157607860362 7.537027403373962
O -6.632564248976516 8.548364345716417 -4.746394770004638
H -6.124441388925053 8.753853934474858 -5.545489598485595
H -6.321891996771868 7.666537149343428 -4.491786263180838
O -8.614293772096033 -1.681271408422089 -1.9512442378888264
H -7.994550169605427 -1.3616774665698201 -1.2783810003707585
H -8.297316041321087 -1.2764099032220622 -2.7725689143109666
O -8.991702873916413 3.678519526768958 -11.370780316306083
H -8.301386051914724 4.172987609611116 -10.903949129246042
H -8.65249896617085 3.600031376474975 -12.275071344423454