194

C -5.0710522388059704 1.0783507462686561 0.47044029850746183
C -3.8153522388059704 0.1782507462686569 0.19534029850746193
C -4.11845223880597 -1.3219492537313435 0.5608402985074619
C -2.96945223880597 -2.3874492537313436 0.7034402985074619
C -2.52015223880597 0.7359507462686565 0.7384402985074618
C -2.20305223880597 0.7852507462686571 2.097440298507462
C -1.5755522388059702 1.205650746268656 -0.18965970149253808
C -0.9533522388059701 1.2695507462686564 2.508640298507462
H -2.91125223880597 0.4298507462686567 2.840840298507462
C -0.32655223880597006 1.6562507462686575 0.21554029850746192
H -1.7850522388059702 1.178550746268657 -1.2573597014925382
C 0.004447761194029898 1.6956507462686563 1.569740298507462
H -0.7158522388059702 1.2676507462686573 3.5705402985074617
H 0.3943477611940298 1.9193507462686572 -0.5551597014925382
C -1.76045223880597 -2.1592492537313435 -0.1734597014925381
C -0.5287522388059701 -1.936549253731343 0.464840298507462
C -1.8068522388059702 -2.121249253731343 -1.5681597014925381
C 0.6114477611940299 -1.614449253731343 -0.2582597014925381
H -0.4544522388059702 -1.954049253731343 1.5506402985074619
C -0.6479522388059701 -1.8270492537313432 -2.2998597014925384
H -2.74345223880597 -2.290549253731343 -2.092259701492538
C 0.5698477611940298 -1.5506492537313434 -1.6506597014925382
H 1.5072477611940298 -1.351949253731343 0.2991402985074618
H -0.7173522388059701 -1.7640492537313435 -3.3840597014925375
C 1.7791477611940298 -1.082849253731343 -2.4255597014925376
H 1.4739477611940297 -0.9102492537313429 -3.464259701492538
H 2.1252477611940295 -0.1337492537313434 -2.0010597014925384
C 1.3965477611940298 2.0964507462686566 1.997440298507462
H 1.51704776119403 1.8448507462686567 3.057640298507462
H 2.1256477611940294 1.5207507462686571 1.4165402985074618
C 3.94864776119403 -1.4275492537313434 -3.522959701492538
H 4.81734776119403 -2.087049253731343 -3.615159701492538
H 3.4305477611940303 -1.3641492537313429 -4.484459701492538
H 4.26984776119403 -0.441449253731343 -3.176459701492538
C 2.60904776119403 -3.4296492537313434 -2.8992597014925376
H 1.9825477611940296 -3.869549253731343 -2.119359701492538
H 2.06294776119403 -3.373349253731343 -3.845759701492538
H 3.5215477611940305 -4.019849253731343 -3.0234597014925377
C 3.7281477611940304 -2.060049253731343 -1.156659701492538
H 3.9048477611940298 -1.032549253731343 -0.8295597014925382
H 3.12924776119403 -2.623249253731343 -0.4404597014925382
H 4.68244776119403 -2.5769492537313434 -1.3005597014925383
C 3.1110477611940297 3.755250746268656 2.588740298507462
H 3.40124776119403 4.809350746268656 2.534540298507462
H 2.9823477611940303 3.461750746268656 3.634840298507462
H 3.86514776119403 3.1392507462686563 2.091540298507462
C 1.99744776119403 3.9574507462686572 0.40494029850746194
H 2.67914776119403 3.230350746268657 -0.04295970149253803
H 1.03214776119403 3.981150746268657 -0.10175970149253821
H 2.4399477611940297 4.958250746268657 0.368240298507462
C 0.7418477611940297 4.4992507462686575 2.475440298507462
H -0.18475223880597014 4.424250746268656 1.901240298507462
H 0.57844776119403 4.189650746268656 3.511940298507462
H 1.1210477611940297 5.524350746268658 2.4432402985074617
N 3.00114776119403 -2.025349253731343 -2.490159701492538
N 1.7831477611940298 3.586450746268657 1.862540298507462
C -3.55075223880597 -3.8435492537313434 0.6444402985074619
H -2.62515223880597 -2.2736492537313433 1.7424402985074618
H -4.67195223880597 -1.3478492537313436 1.5102402985074619
H -4.83415223880597 -1.6757492537313432 -0.1945597014925382
H -3.7169522388059697 0.17335074626865676 -0.900559701492538
H -3.9132522388059705 -4.043149253731343 -0.34225970149253815
H -4.35435223880597 -3.9354492537313432 1.3449402985074619
H -2.78115223880597 -4.545049253731343 0.8904402985074619
H -5.24235223880597 1.138950746268657 1.5249402985074618
H -5.92805223880597 0.6501507462686567 -0.006059701492538094
H -4.89895223880597 2.059650746268657 0.08004029850746197
C -1.5889895671965386 -2.403056792825857 3.6588717364066365
O -1.3393267653282661 -1.214415223681158 3.5301270119923474
O -0.7804322587522121 -3.323215645630786 3.491019930738713
O -2.688851927428888 -2.8697308059260638 3.9769386137155993
O -7.6396095106630515 1.5725086617027355 -1.3156701144667533
H -8.20327981965128 0.8920517977839063 -1.7134408977212159
H -7.939820308393462 1.6165475431516685 -0.3954005897367443
O -0.4327370657725922 7.751268706349215 -5.254075582236675
H -0.4639195372499918 6.938283721134045 -5.780431378430895
H -0.13766868052996584 7.453341786299031 -4.380498944133458
O -0.8624054112293593 -10.762573549982916 2.08723077414427
H -1.5024079955215024 -11.471033600484539 1.921555169897252
H -0.004043762677077289 -11.211353781732265 2.0594183994594584
O -1.8761761319687682 -5.713774865480258 3.363537531391795
H -2.3156950508281877 -6.053747220689878 2.5696803184385635
H -1.9738911435302258 -6.429215566225236 4.009725061860373
O -2.865023060301469 2.1970896746227058 -4.300981048038328
H -3.033750162870666 3.150397945804714 -4.342234676419055
H -3.729068498147898 1.81561815191689 -4.084493397117361
O 2.4354070751489525 -7.314220531253139 -0.17386359160924725
H 3.2398769977601667 -7.224658316469123 -0.7065681158972348
H 1.8939027802154498 -6.555395132513405 -0.4382857107597715
O -9.532564064846866 -2.2754335665898977 4.0460963800850465
H -9.927779718344482 -2.029601574566266 4.8960014193854065
H -9.945010165495058 -1.6695958007749372 3.412210933121293
O -5.944614516940817 2.9042221877169623 3.2420574556897432
H -5.773025834118692 2.4705542179250646 4.09144357095414
H -5.06227905630879 3.134782607188021 2.914509028454016
O -4.415752648364804 -4.030988429453395 9.336016226423872
H -3.91209709518421 -3.2430964054625364 9.08199929946439
H -3.911262427977129 -4.403120430284634 10.074913604813142
O 1.4029919337242451 -0.6955525494620096 9.107061642931418
H 1.7815101353665876 -1.1996308780235665 9.842993954085124
H 2.037529721997606 0.022786252119861114 8.964537589890986
O -0.34689974791041234 -7.740317434375909 -5.488971190484956
H -0.895123687263637 -7.175687830874934 -4.923629453063806
H 0.53234865565297 -7.335800940418378 -5.441530751537269
O 5.890194327292223 3.7245766759511527 -1.534917214382025
H 5.079183494537712 3.552367023926539 -1.033347057968793
H 6.0306749590027025 2.909516535912237 -2.039797501711572
O 7.567543057996457 -6.605150267537401 2.774487368613892
H 6.978946555846719 -5.982211635588593 3.2266698266801512
H 7.635994725719431 -6.251562226143241 1.8749031254943362
O 3.5684652071086242 -3.3625177836712896 2.3057063350436966
H 3.2424340217945815 -4.136342113008144 2.7893042366407643
H 3.134365844107412 -3.4264568749798867 1.4417436738455571
O -0.37336960216979254 7.326332659790346 -1.1365810052855951
H -0.9619266316451667 6.869565749323392 -0.5169585642316905
H -0.3939758352963326 8.24920156874386 -0.8418772483647161
O 8.482641847537987 -3.827521879198316 -9.246946975477902
H 8.670031696536428 -3.278830495087398 -10.023342600397818
H 7.868503820072384 -4.499874760690831 -9.57821428486621
O -8.218464774378326 1.062316594128524 -4.428799501308026
H -8.618265430738672 0.2203669982615672 -4.693842271617472
H -7.516197282287541 1.2036401251399629 -5.08134066739257
O 0.07456567010152293 5.438875679174802 -3.932004084937808
H 0.39797680984558337 4.840642450987004 -4.622286343352042
H 0.2637120154945043 4.967834383553972 -3.1065916412804997
O -2.7148288358215056 7.373035672325949 -1.5278331661033953
H -2.1894964546306923 7.977983403032321 -2.0728391195439064
H -2.940964843235702 7.898886278935247 -0.7459728269254837
O 1.9741190792015275 -0.39585478141331 -6.022766059141141
H 2.0914949031406254 0.053682116579564676 -5.172409163362925
H 1.3305669802439062 0.15582249898458134 -6.4922922229701925
C -6.127464152006752 13.984393439544803 1.9725423173885117
O -6.102362491568099 14.206314988308414 0.7965580529795087
O -6.152565812445403 13.762471890781192 3.148526581797514
O -6.459268250674623 2.0732703538695247 -11.693843188714176
H -5.981190967405106 2.7300146769840845 -11.165547474006555
H -5.828574972025982 1.8262169070674739 -12.386773579872376
O 5.885947475224716 10.567545087301095 0.0055943482241147535
H 6.53452933439969 11.216787893709247 0.31670961171403356
H 5.453070823924787 11.008365451284655 -0.7409022396828622
O 0.9046452785022283 -8.859245466988629 9.741676352611814
H 0.5955433220803426 -9.66814543536967 10.176537455251857
H 0.20606431683408877 -8.655990315237387 9.1016498472377
O 8.498213338156846 0.347901898132708 9.143168258965806
H 8.554129916535372 1.0320486700892824 8.459220974751709
H 7.566353044168446 0.08239283998552427 9.133005738134612
O -2.654732698151162 11.514979904297578 17.66386793018357
H -1.8689057306092183 11.729759081760847 18.188570930853512
H -2.4042699676138852 10.710086074268638 17.185980613660988
O -1.1878693857092477 -11.128918904179892 -0.9437382211149712
H -1.324274526266926 -11.141208974897499 -1.9030139628551639
H -0.9341820929187699 -10.212935190805059 -0.7551154796210341
O 10.74751594788481 5.888308054888032 -1.7874098627194535
H 10.88776101784225 5.95356142681274 -0.830832278461339
H 9.829814987115178 5.588225891599375 -1.8694926634665616
O 6.856884304242893 -1.4807876186007034 21.633893404027027
H 6.5241382222964255 -1.0040153277318096 22.409093755232384
H 6.055633898595724 -1.8115858280853003 21.2008434342175
O 6.077945042721458 -4.285506914664754 17.271609055286735
H 6.36258239819741 -5.196760838367184 17.437636821954197
H 5.1310592980741685 -4.294919200909297 17.477231864700954
O -13.343237298688631 -11.322365761725766 7.067151955719437
H -13.961252415640253 -12.051254639972639 6.906697366232892
H -12.580866691499468 -11.7497268027851 7.485620045516862
O -8.931902188331302 5.4446405480571425 17.40779588050075
H -9.331224174654967 6.250540636782801 17.047193114107458
H -9.328797698727165 5.360290335545093 18.287750958772804
O -16.935490631624383 1.8056370751397912 4.059900241264705
H -16.633340593182055 1.892609837955927 3.143325940022614
H -17.23390925223155 2.6974305417052467 4.293593810209354
O 8.251452891768093 17.053041836407136 -3.612086301662462
H 7.30220742685495 16.89702421481528 -3.7285290171694907
H 8.35345048680042 17.172527995082863 -2.6559056216691124
O -4.588354373862681 -17.93765633398558 4.029544333254078
H -4.367297454777867 -17.273689661277444 4.6998050683099395
H -5.415204607181487 -17.61307907361911 3.6423360714444453
O -7.250831344129904 -2.0307955569611438 8.212178296578074
H -6.968987253562039 -2.875307347899335 7.829645813671927
H -6.42327028225125 -1.5421740440990854 8.336088144171667
O 4.596433800742551 9.50574999180807 5.5621313263841
H 4.11586539263255 9.043035451746576 6.26492334145136
H 4.357335910488908 9.021890835854961 4.757349082310214
O 2.157697317235077 -8.678596451164674 -10.783491274861136
H 2.4661400118387418 -8.862928393199198 -9.88357339183435
H 2.446847345345367 -9.450609587475094 -11.292755374231948
O -0.6659486661237122 4.8781330902056785 -11.887717810621723
H -1.6152494693758408 4.979647331661774 -11.721916119959483
H -0.625300085118186 4.368309652130584 -12.710754686558351
O 18.65839859991635 -3.8180279067506686 -4.315622327454509
H 19.460124751470712 -3.2800803022243383 -4.233069861723837
H 18.45570311898016 -3.7921928417102557 -5.262833516008786
O -5.431929077821507 -9.9464862083864 11.942595059277279
H -5.376101190384976 -9.672641307444465 11.014769874173709
H -4.57070536118744 -9.699539644389557 12.311746855612007