194

C -5.0710522388059704 1.0783507462686561 0.47044029850746183
C -3.8153522388059704 0.1782507462686569 0.19534029850746193
C -4.11845223880597 -1.3219492537313435 0.5608402985074619
C -2.96945223880597 -2.3874492537313436 0.7034402985074619
C -2.52015223880597 0.7359507462686565 0.7384402985074618
C -2.20305223880597 0.7852507462686571 2.097440298507462
C -1.5755522388059702 1.205650746268656 -0.18965970149253808
C -0.9533522388059701 1.2695507462686564 2.508640298507462
H -2.91125223880597 0.4298507462686567 2.840840298507462
C -0.32655223880597006 1.6562507462686575 0.21554029850746192
H -1.7850522388059702 1.178550746268657 -1.2573597014925382
C 0.004447761194029898 1.6956507462686563 1.569740298507462
H -0.7158522388059702 1.2676507462686573 3.5705402985074617
H 0.3943477611940298 1.9193507462686572 -0.5551597014925382
C -1.76045223880597 -2.1592492537313435 -0.1734597014925381
C -0.5287522388059701 -1.936549253731343 0.464840298507462
C -1.8068522388059702 -2.121249253731343 -1.5681597014925381
C 0.6114477611940299 -1.614449253731343 -0.2582597014925381
H -0.4544522388059702 -1.954049253731343 1.5506402985074619
C -0.6479522388059701 -1.8270492537313432 -2.2998597014925384
H -2.74345223880597 -2.290549253731343 -2.092259701492538
C 0.5698477611940298 -1.5506492537313434 -1.6506597014925382
H 1.5072477611940298 -1.351949253731343 0.2991402985074618
H -0.7173522388059701 -1.7640492537313435 -3.3840597014925375
C 1.7791477611940298 -1.082849253731343 -2.4255597014925376
H 1.4739477611940297 -0.9102492537313429 -3.464259701492538
H 2.1252477611940295 -0.1337492537313434 -2.0010597014925384
C 1.3965477611940298 2.0964507462686566 1.997440298507462
H 1.51704776119403 1.8448507462686567 3.057640298507462
H 2.1256477611940294 1.5207507462686571 1.4165402985074618
C 3.94864776119403 -1.4275492537313434 -3.522959701492538
H 4.81734776119403 -2.087049253731343 -3.615159701492538
H 3.4305477611940303 -1.3641492537313429 -4.484459701492538
H 4.26984776119403 -0.441449253731343 -3.176459701492538
C 2.60904776119403 -3.4296492537313434 -2.8992597014925376
H 1.9825477611940296 -3.869549253731343 -2.119359701492538
H 2.06294776119403 -3.373349253731343 -3.845759701492538
H 3.5215477611940305 -4.019849253731343 -3.0234597014925377
C 3.7281477611940304 -2.060049253731343 -1.156659701492538
H 3.9048477611940298 -1.032549253731343 -0.8295597014925382
H 3.12924776119403 -2.623249253731343 -0.4404597014925382
H 4.68244776119403 -2.5769492537313434 -1.3005597014925383
C 3.1110477611940297 3.755250746268656 2.588740298507462
H 3.40124776119403 4.809350746268656 2.534540298507462
H 2.9823477611940303 3.461750746268656 3.634840298507462
H 3.86514776119403 3.1392507462686563 2.091540298507462
C 1.99744776119403 3.9574507462686572 0.40494029850746194
H 2.67914776119403 3.230350746268657 -0.04295970149253803
H 1.03214776119403 3.981150746268657 -0.10175970149253821
H 2.4399477611940297 4.958250746268657 0.368240298507462
C 0.7418477611940297 4.4992507462686575 2.475440298507462
H -0.18475223880597014 4.424250746268656 1.901240298507462
H 0.57844776119403 4.189650746268656 3.511940298507462
H 1.1210477611940297 5.524350746268658 2.4432402985074617
N 3.00114776119403 -2.025349253731343 -2.490159701492538
N 1.7831477611940298 3.586450746268657 1.862540298507462
C -3.55075223880597 -3.8435492537313434 0.6444402985074619
H -2.62515223880597 -2.2736492537313433 1.7424402985074618
H -4.67195223880597 -1.3478492537313436 1.5102402985074619
H -4.83415223880597 -1.6757492537313432 -0.1945597014925382
H -3.7169522388059697 0.17335074626865676 -0.900559701492538
H -3.9132522388059705 -4.043149253731343 -0.34225970149253815
H -4.35435223880597 -3.9354492537313432 1.3449402985074619
H -2.78115223880597 -4.545049253731343 0.8904402985074619
H -5.24235223880597 1.138950746268657 1.5249402985074618
H -5.92805223880597 0.6501507462686567 -0.006059701492538094
H -4.89895223880597 2.059650746268657 0.08004029850746197
C 1.6880379264290435 -1.2540812280101152 3.0576028862772593
O 2.02120220352912 -0.2943802917995231 2.379553348189594
O 1.6802294799902062 -1.2849376246832094 4.2935714841989725
O 1.3071275580280428 -2.3429540371789632 2.6127302291074166
O -1.8756753053591528 -8.031757230804079 4.874343998693912
H -2.1880861496202244 -7.69949884182336 4.019375470477801
H -2.030964211723169 -7.293993701619943 5.4830740495917105
O 1.2609987804069371 7.477926809232764 6.752109117025178
H 0.9298796132467422 7.5790700725160045 5.84706906579454
H 1.8972761260253106 8.202056801212011 6.850845323499668
O 5.193516142890455 3.596754207851933 -2.9718098960869135
H 5.931663150458343 3.5183907392643685 -3.5946786775405184
H 4.830369490011492 2.699585958751747 -2.925166722853188
O -2.5546966906177135 7.473248100836124 -7.1247151376229745
H -2.5199438397081595 7.3269590819306645 -6.1674486547660115
H -3.427414391766781 7.1391312804056 -7.381019075763771
O -1.5863613971040582 3.4462065706859883 8.278483512893525
H -1.5693201724971961 3.5014584768214103 7.31120683043276
H -1.2125265801737366 4.292061056629373 8.567861574536291
O -3.5658914785332705 0.11183404588710166 -7.134541979656585
H -2.629409745238512 -0.12367623601798217 -7.215190768997977
H -3.8612608351413327 0.21443356402385172 -8.05170730082559
O -5.60272162987885 2.7195282011238326 -3.744566933308083
H -6.125625751635036 1.9571486436714385 -4.03493918874769
H -6.263626796438977 3.339824791140842 -3.4019323677321616
O -6.508563548250214 -1.5215476171854019 -6.810617069718216
H -6.477394535235006 -1.4389214465854434 -7.77558793221078
H -5.662176412448527 -1.1525336206476369 -6.516645249625468
O 1.5732642007490798 -3.8328969670297144 -7.933071205072696
H 2.3507317121543405 -3.459182996110832 -8.374488800496067
H 1.3367610415658011 -3.1659130519276473 -7.271134155957415
O -4.7968334762086435 -5.906117131917254 3.8360179668820686
H -4.4684215893983215 -6.69759372437066 4.28843126586877
H -5.484386585736834 -6.244011499998398 3.242671472919933
O -5.1963706075254805 -1.3269041125065502 -2.8740696121416835
H -4.297427975624725 -0.9669227046623357 -2.909887030499792
H -5.106265239163746 -2.2186086578190958 -3.242452525373749
O -4.16875700585888 3.589063753681033 -2.572294283597162
H -3.763752701532891 2.73228310879065 -2.7744471883960853
H -3.4207257186622027 4.144600778604759 -2.306230848278105
O 1.5082571353463412 -4.634226305155618 1.2365186814568037
H 2.0838524266506506 -3.9028527530711896 1.5062410291399613
H 1.7610165501995183 -4.803999004845844 0.31659919968518047
O 4.9396824341453165 -3.712636532520074 -9.29121191828626
H 4.398960480978894 -4.0354855330311254 -8.554763923426538
H 5.093286169435862 -2.7800471096983546 -9.077565469109487
O 2.744405639718444 -8.317287397809515 -2.210598601487476
H 2.5985207305716838 -7.3767738917749215 -2.3925856756157167
H 2.655413227793979 -8.74006950145105 -3.077949503810351
O -1.9637777505348604 1.9223553432616387 -4.147382913442579
H -2.5209626376369267 1.6341796680145877 -4.8859403849239555
H -1.1286610850232797 1.450954245840524 -4.28639048386587
O 7.0375675571048495 -2.0082228495206076 3.9167676319247042
H 7.001437283236392 -1.238555608704361 4.50436809025034
H 6.913642149275827 -1.6331843417294025 3.0319226990307215
O -7.173060905414578 3.5166983260285263 9.86794312986411
H -7.181075564004133 4.378776379294182 10.310350806363275
H -7.710868790825222 3.6560394221585195 9.074023309215058
O -3.4298448241168886 4.472643566150281 -7.292376989886828
H -4.039816571838832 3.952220071953426 -7.83649206096001
H -2.5957362607594416 4.445674255917547 -7.784817346822917
O 0.002035371951343512 -5.334869559410802 3.0232357044471607
H -0.6298356519255006 -5.55940378514261 2.3237424967890394
H -0.09362144447175291 -6.0546260927937094 3.664922739086647
C -6.914889227182439 5.071990891434515 17.929283738426406
O -5.796948758304529 5.422720377402357 17.68430171251884
O -8.032829696060347 4.721261405466674 18.17426576433397
O 12.423013803702538 1.5521433982169048 -16.75554267661
H 12.99387152070693 1.3668972365420746 -15.994771565551435
H 12.459589839728377 2.516184253210028 -16.84636870697994
O 11.44219600191579 7.393728317229055 -1.2571516912152232
H 12.045786149071 6.756367407035292 -1.6675385347106388
H 11.043001238012964 7.85593347032833 -2.009462718132311
O 17.857190902452572 -4.654280982308033 -3.698592492791732
H 18.009998236370183 -5.2747335528118695 -4.427053804980771
H 18.731279234997107 -4.548579358935137 -3.2939213942118517
O 8.213726347261517 -2.519232161915076 -8.064163954805592
H 8.007124292300787 -3.455399412520772 -8.205138515203474
H 7.774354680782611 -2.069012520997988 -8.801196354315978
O -13.24755608850763 -0.037043519682163684 1.7529794473424782
H -13.326407553024357 -0.1802235017972842 0.7978620220145338
H -12.638057657515809 0.7125447604630823 1.8277525520486613
O -10.511436999087055 14.635545702241249 3.000070948351485
H -10.329868690897664 13.732440819977173 3.30073999895701
H -10.352404021448931 14.600635267233672 2.044847561990402
O -0.3016061514794668 15.295285146621296 14.728818831220423
H -0.3070010146154942 14.795654643843623 15.55906434493662
H -0.0722954198019572 16.196940251615533 14.999736907906637
O 14.818761816155646 16.178039288637116 8.610387205463274
H 15.073587404805618 15.275275431632625 8.367387833539036
H 15.664419235117405 16.634409396668957 8.73509405591642
O 5.905194832750558 13.02485740534206 12.654906098996019
H 6.266041575465805 12.715688458659606 13.499400946570034
H 5.284382263025742 12.3272648280025 12.396220394689768
O 1.5979298359313538 -9.982916683049554 5.28304137992903
H 1.7669223519694783 -10.611350513005924 6.001010604749615
H 0.850938403879336 -9.455878309206824 5.604283184864324
O 6.714553934641828 2.3495780273865265 -9.867737668887747
H 6.668448189769505 1.4513942440177616 -10.228441853065227
H 7.650332190125434 2.5872057668763904 -9.950284978286632
O 11.258785458980142 -15.617657884128349 -4.92289857228022
H 11.337712377106826 -16.512876785199214 -4.56051615319714
H 10.362486605443769 -15.592037560213107 -5.290259305690662
O 10.796111256912504 -1.644379161945861 -22.085867963853488
H 10.689117292499576 -0.8563312907273533 -21.53224336076292
H 10.185783343618326 -2.288525527640023 -21.69659011691511
O 3.773492061091592 6.142728664525083 18.427857906863323
H 3.391360539211676 5.884480177269033 19.280061272097058
H 3.507349406727424 7.068537049228935 18.322934760513064
O -0.9905579153821762 9.704862714116855 -0.7384394805235868
H -1.0866052663987502 10.591898166553479 -0.3604046019961533
H -0.09989652779188996 9.431912010522247 -0.47163964850910944
O -7.153280431242087 -0.047442719068034656 -14.831327646024397
H -7.114471628015664 -0.0805401266423118 -15.798987604534613
H -6.464098701275559 0.5899614287771402 -14.591105999018739
O 14.934397538063724 -0.053880082714966804 8.54711561064553
H 14.206948782333463 0.4195693806445302 8.977965085904698
H 15.203479664509 0.5359189235586315 7.826911552252103
O -5.159541561383562 11.231314829964138 -5.580284002619797
H -5.229801256182847 11.18665787152299 -6.54570447487502
H -5.613832678298366 10.431584780498538 -5.275303063257923
O 6.525594164107559 3.2537136051800672 10.81756719711704
H 5.850702594420888 3.8443095647280963 11.184561936359177
H 6.118536935253054 2.37559220079791 10.864141394943738
O 8.56005229515328 3.4738495486371477 1.2328012144376552
H 8.2102188139565 3.8852451127811345 2.0373741335297613
H 8.099583936985095 2.6225331469865445 1.1859907486574217