194

C -5.0710522388059704 1.0783507462686561 0.47044029850746183
C -3.8153522388059704 0.1782507462686569 0.19534029850746193
C -4.11845223880597 -1.3219492537313435 0.5608402985074619
C -2.96945223880597 -2.3874492537313436 0.7034402985074619
C -2.52015223880597 0.7359507462686565 0.7384402985074618
C -2.20305223880597 0.7852507462686571 2.097440298507462
C -1.5755522388059702 1.205650746268656 -0.18965970149253808
C -0.9533522388059701 1.2695507462686564 2.508640298507462
H -2.91125223880597 0.4298507462686567 2.840840298507462
C -0.32655223880597006 1.6562507462686575 0.21554029850746192
H -1.7850522388059702 1.178550746268657 -1.2573597014925382
C 0.004447761194029898 1.6956507462686563 1.569740298507462
H -0.7158522388059702 1.2676507462686573 3.5705402985074617
H 0.3943477611940298 1.9193507462686572 -0.5551597014925382
C -1.76045223880597 -2.1592492537313435 -0.1734597014925381
C -0.5287522388059701 -1.936549253731343 0.464840298507462
C -1.8068522388059702 -2.121249253731343 -1.5681597014925381
C 0.6114477611940299 -1.614449253731343 -0.2582597014925381
H -0.4544522388059702 -1.954049253731343 1.5506402985074619
C -0.6479522388059701 -1.8270492537313432 -2.2998597014925384
H -2.74345223880597 -2.290549253731343 -2.092259701492538
C 0.5698477611940298 -1.5506492537313434 -1.6506597014925382
H 1.5072477611940298 -1.351949253731343 0.2991402985074618
H -0.7173522388059701 -1.7640492537313435 -3.3840597014925375
C 1.7791477611940298 -1.082849253731343 -2.4255597014925376
H 1.4739477611940297 -0.9102492537313429 -3.464259701492538
H 2.1252477611940295 -0.1337492537313434 -2.0010597014925384
C 1.3965477611940298 2.0964507462686566 1.997440298507462
H 1.51704776119403 1.8448507462686567 3.057640298507462
H 2.1256477611940294 1.5207507462686571 1.4165402985074618
C 3.94864776119403 -1.4275492537313434 -3.522959701492538
H 4.81734776119403 -2.087049253731343 -3.615159701492538
H 3.4305477611940303 -1.3641492537313429 -4.484459701492538
H 4.26984776119403 -0.441449253731343 -3.176459701492538
C 2.60904776119403 -3.4296492537313434 -2.8992597014925376
H 1.9825477611940296 -3.869549253731343 -2.119359701492538
H 2.06294776119403 -3.373349253731343 -3.845759701492538
H 3.5215477611940305 -4.019849253731343 -3.0234597014925377
C 3.7281477611940304 -2.060049253731343 -1.156659701492538
H 3.9048477611940298 -1.032549253731343 -0.8295597014925382
H 3.12924776119403 -2.623249253731343 -0.4404597014925382
H 4.68244776119403 -2.5769492537313434 -1.3005597014925383
C 3.1110477611940297 3.755250746268656 2.588740298507462
H 3.40124776119403 4.809350746268656 2.534540298507462
H 2.9823477611940303 3.461750746268656 3.634840298507462
H 3.86514776119403 3.1392507462686563 2.091540298507462
C 1.99744776119403 3.9574507462686572 0.40494029850746194
H 2.67914776119403 3.230350746268657 -0.04295970149253803
H 1.03214776119403 3.981150746268657 -0.10175970149253821
H 2.4399477611940297 4.958250746268657 0.368240298507462
C 0.7418477611940297 4.4992507462686575 2.475440298507462
H -0.18475223880597014 4.424250746268656 1.901240298507462
H 0.57844776119403 4.189650746268656 3.511940298507462
H 1.1210477611940297 5.524350746268658 2.4432402985074617
N 3.00114776119403 -2.025349253731343 -2.490159701492538
N 1.7831477611940298 3.586450746268657 1.862540298507462
C -3.55075223880597 -3.8435492537313434 0.6444402985074619
H -2.62515223880597 -2.2736492537313433 1.7424402985074618
H -4.67195223880597 -1.3478492537313436 1.5102402985074619
H -4.83415223880597 -1.6757492537313432 -0.1945597014925382
H -3.7169522388059697 0.17335074626865676 -0.900559701492538
H -3.9132522388059705 -4.043149253731343 -0.34225970149253815
H -4.35435223880597 -3.9354492537313432 1.3449402985074619
H -2.78115223880597 -4.545049253731343 0.8904402985074619
H -5.24235223880597 1.138950746268657 1.5249402985074618
H -5.92805223880597 0.6501507462686567 -0.006059701492538094
H -4.89895223880597 2.059650746268657 0.08004029850746197
C -0.47292633578464827 -0.8626130116860073 4.220305279321931
O 0.6470264653519573 -0.8017474265955338 3.7368007784350565
O -1.396891278056673 -1.5635280782721006 3.7917748615160685
O -0.85565168815288 -0.23270293753982463 5.212969868971307
O 2.7632764051005783 2.4297095266682476 10.442344561528145
H 2.6852338364136807 3.1259160597713356 9.772887186008738
H 2.5766107886284346 1.613686191731838 9.95426279710098
O -7.574151163632094 -6.167020638757519 -1.3566289378089027
H -7.612687257777857 -6.649317400455513 -0.5170622876830062
H -8.471218007115244 -6.247349236645677 -1.7140926967894465
O -8.792058033162855 -2.8271863735095004 -4.75031762807322
H -8.194105147303333 -3.024844202627561 -4.013872731437628
H -8.8284693967123 -1.859048174063311 -4.768880593287831
O 5.159109555656436 6.625658480526934 4.675698497779099
H 5.313138859205531 6.564152257634884 5.630402281731868
H 4.780538564071954 7.50960219057239 4.556159942903198
O -3.56323420867417 7.889980482688914 0.4099123161115825
H -4.39919331823705 8.069736637988868 0.8657932749929715
H -2.903262057600159 7.89820399201605 1.1193706150982732
O 2.506681340943405 -7.075886444742736 2.682426356749293
H 1.611830777151465 -6.7745811435165235 2.9001990383102028
H 2.4947066929259876 -8.02039922278244 2.898560954221747
O -4.223434161832644 -5.865292018699733 -7.9346677035664195
H -4.168939627032545 -5.822618197790078 -6.96813956244176
H -4.609202319900826 -5.012435938839633 -8.185229830725225
O -4.893819682529938 3.3043555389689643 -5.534712416823974
H -4.027002801765195 3.118133488030504 -5.1436661281757425
H -5.052891063750856 2.5497653929501363 -6.121442296332213
O -4.339574966122496 -9.402230206047422 -1.7591269849568834
H -3.4895569631767 -9.388173921247205 -1.2941117460392126
H -4.570391443761454 -10.342595938417444 -1.7965166537777533
O 0.43219568382689266 5.459432940668388 -3.260596623401526
H 0.14729184658358008 6.379316589021374 -3.152841187729645
H -0.3968776656232076 4.967684688106419 -3.359505579688817
O -6.440194711562903 -6.544756281193397 -3.857680924283556
H -5.901820446948734 -5.983073496832835 -4.435290617635495
H -7.346011133823423 -6.235351612953897 -4.008436702729211
O -4.622286297850427 4.5107935446146525 -0.7354199221384309
H -3.8347472794718547 3.964793156967391 -0.879062632083479
H -5.16071539149046 4.357649617214859 -1.5263706114500577
O 7.125144258529263 5.976143750849503 1.41277150109552
H 7.777634892886572 5.995912930191433 2.1288947506302254
H 6.703755775961758 6.847653613577235 1.4559484651822199
O 6.476866735260693 -7.6527874074904885 4.85171313449242
H 5.624736479813788 -7.668119674992215 4.390620620754396
H 6.779512773957288 -8.572575344075116 4.814869257461702
O -7.970002696243965 -2.330778862799518 2.102200053412783
H -7.511938732792399 -2.1302494990727974 1.2721803328215187
H -8.402009118962436 -3.181202849912668 1.931579312667231
O 2.9990237499831256 8.815372473803688 2.2334493901703953
H 2.9326822962221426 8.526260132324651 1.3109634973691082
H 2.5920635747223284 9.694772910562028 2.2329678499942975
O 0.3566257463194806 7.47418346540827 4.299157020369321
H -0.2337879201048973 6.711053098996476 4.209652253683267
H 0.9667243745252294 7.387069856183182 3.551391798358267
O -9.148623899064425 0.3779626099835942 2.6981641602330377
H -8.75097460872913 1.16320877839051 3.103418221036992
H -9.28287156019818 0.6343737194049035 1.773397782846052
O 2.3414754972379748 5.493157014404545 7.723961634263647
H 2.527965694295897 5.8492030215584165 6.842247392521413
H 2.5518194831752927 4.5505594272674355 7.645049400717144
O -2.6036159646609773 0.032380099987417754 -7.787537496175009
H -1.7904372377593285 0.08063370182686525 -8.312303448694925
H -3.181247326630472 0.6987114082278378 -8.189167352669614
C -3.8157055056935114 6.485014456321335 -5.690780174556343
O -4.434667331954232 7.463515550892761 -5.994490765175961
O -3.1967436794327897 5.506513361749911 -5.387069583936725
O 3.734253842296641 -7.025282195361564 19.514760305987352
H 3.544200703557844 -7.346015589989467 18.620345832196822
H 2.883247349925765 -6.682010223249711 19.826070838101284
O -2.0911356571356414 3.830987500252039 19.094256324516707
H -2.7236437528756645 3.7798125249022534 18.36194355826087
H -2.0383091112284184 2.920611422365158 19.4219554199668
O 6.757195488104874 2.4013321787098247 15.189426291108088
H 7.144590009820134 3.1586814202892315 15.653446730015801
H 7.52360734838337 1.9312413444356586 14.82805472020651
O 3.502382518996491 7.5371218336520345 9.52728341686608
H 3.757795999625442 6.611802953978859 9.65963250727997
H 2.9016545538796787 7.7219011999810245 10.264809309296758
O 2.9784746453865534 -9.163426195866721 7.700845448585768
H 3.0238386916895976 -8.288374782355918 8.114602000093731
H 2.5260617967282757 -9.71087059677993 8.360079236082797
O -0.33174576271363265 -6.284351067924777 -20.770441847827215
H -1.0199827264092654 -6.572753989123683 -20.15228248831953
H 0.2999804023605601 -7.019091593308062 -20.77679456536778
O -20.43168011478625 -8.427088934265203 6.063463635938149
H -19.535193643623828 -8.776761537983829 5.949409113312394
H -20.68835755028215 -8.145894847010464 5.172392076690395
O -13.267242480122425 7.834707153732487 -5.5411441904056
H -13.654758440694064 7.841401039948614 -4.653025994955486
H -12.378231727129794 8.197715677311763 -5.411349594322913
O -9.053155053842952 -3.2464769414242776 -11.965140862376954
H -9.150463603683908 -2.8308830840268637 -12.835071979604859
H -8.590803870526242 -2.5784457202709574 -11.437004880692271
O 5.808889528506024 15.208763790987161 -2.81391149094671
H 5.807668146581926 15.52935212411284 -1.8994777941759184
H 6.389770699011578 14.433562202876235 -2.78938583412789
O 4.531483604301602 0.711047966575307 -14.224252948742839
H 4.822660619916913 0.920112573720913 -15.124516961417129
H 3.651956948592142 1.113158996275341 -14.163412781171491
O 20.77340757136937 -0.38569015908593407 5.305617066682166
H 20.201757022791227 -1.0738578674784067 4.933315827984034
H 20.21288667200541 0.4046889538234346 5.314512208772976
O -14.062775105070692 -3.9523610401518994 -5.013404369202411
H -13.401462376999774 -3.2458731984436797 -5.063481930144078
H -14.636280516542104 -3.68454913262319 -4.279694433670091
O -3.252002429941525 0.17843615956649694 22.586366659615514
H -4.005855189675103 0.5300660075739945 23.08338760840168
H -2.503484518974936 0.7167703080328831 22.884492850778223
O 5.540437604501806 -6.796657149944828 -7.73105647502573
H 6.0539341386645456 -6.21671688608431 -7.148855516029398
H 6.150748741564724 -7.000890084493204 -8.455467386541237
O 16.995131747986907 6.43650192894246 -1.5659303743350659
H 17.751939033033835 6.291564351668214 -0.978390427698435
H 17.13537993803693 7.330653525840371 -1.9120305206115553
O -9.089840047523271 7.761766646203958 7.280564395953723
H -9.135750089736941 7.591609192869436 6.327723346250966
H -9.792819176088797 7.207484656702599 7.651446810224974
O -20.823086765936335 1.9035196040962 17.52938282251887
H -21.07228643197507 1.1409202397462348 18.072806315606176
H -20.2350064759955 1.5291562472273021 16.85634820682889
O 11.485145599189368 2.0854145008312344 -16.56898292216881
H 11.82143502011506 1.3729675767080218 -17.133160343359023
H 12.28285301314425 2.4649442630728453 -16.170759384951037
O -3.492999285524209 4.988322529592636 14.688836321576453
H -3.00153961227208 5.811879892566738 14.550315505963589
H -4.266759399408018 5.26137116516097 15.204298903222092