194

C -5.0710522388059704 1.0783507462686561 0.47044029850746183
C -3.8153522388059704 0.1782507462686569 0.19534029850746193
C -4.11845223880597 -1.3219492537313435 0.5608402985074619
C -2.96945223880597 -2.3874492537313436 0.7034402985074619
C -2.52015223880597 0.7359507462686565 0.7384402985074618
C -2.20305223880597 0.7852507462686571 2.097440298507462
C -1.5755522388059702 1.205650746268656 -0.18965970149253808
C -0.9533522388059701 1.2695507462686564 2.508640298507462
H -2.91125223880597 0.4298507462686567 2.840840298507462
C -0.32655223880597006 1.6562507462686575 0.21554029850746192
H -1.7850522388059702 1.178550746268657 -1.2573597014925382
C 0.004447761194029898 1.6956507462686563 1.569740298507462
H -0.7158522388059702 1.2676507462686573 3.5705402985074617
H 0.3943477611940298 1.9193507462686572 -0.5551597014925382
C -1.76045223880597 -2.1592492537313435 -0.1734597014925381
C -0.5287522388059701 -1.936549253731343 0.464840298507462
C -1.8068522388059702 -2.121249253731343 -1.5681597014925381
C 0.6114477611940299 -1.614449253731343 -0.2582597014925381
H -0.4544522388059702 -1.954049253731343 1.5506402985074619
C -0.6479522388059701 -1.8270492537313432 -2.2998597014925384
H -2.74345223880597 -2.290549253731343 -2.092259701492538
C 0.5698477611940298 -1.5506492537313434 -1.6506597014925382
H 1.5072477611940298 -1.351949253731343 0.2991402985074618
H -0.7173522388059701 -1.7640492537313435 -3.3840597014925375
C 1.7791477611940298 -1.082849253731343 -2.4255597014925376
H 1.4739477611940297 -0.9102492537313429 -3.464259701492538
H 2.1252477611940295 -0.1337492537313434 -2.0010597014925384
C 1.3965477611940298 2.0964507462686566 1.997440298507462
H 1.51704776119403 1.8448507462686567 3.057640298507462
H 2.1256477611940294 1.5207507462686571 1.4165402985074618
C 3.94864776119403 -1.4275492537313434 -3.522959701492538
H 4.81734776119403 -2.087049253731343 -3.615159701492538
H 3.4305477611940303 -1.3641492537313429 -4.484459701492538
H 4.26984776119403 -0.441449253731343 -3.176459701492538
C 2.60904776119403 -3.4296492537313434 -2.8992597014925376
H 1.9825477611940296 -3.869549253731343 -2.119359701492538
H 2.06294776119403 -3.373349253731343 -3.845759701492538
H 3.5215477611940305 -4.019849253731343 -3.0234597014925377
C 3.7281477611940304 -2.060049253731343 -1.156659701492538
H 3.9048477611940298 -1.032549253731343 -0.8295597014925382
H 3.12924776119403 -2.623249253731343 -0.4404597014925382
H 4.68244776119403 -2.5769492537313434 -1.3005597014925383
C 3.1110477611940297 3.755250746268656 2.588740298507462
H 3.40124776119403 4.809350746268656 2.534540298507462
H 2.9823477611940303 3.461750746268656 3.634840298507462
H 3.86514776119403 3.1392507462686563 2.091540298507462
C 1.99744776119403 3.9574507462686572 0.40494029850746194
H 2.67914776119403 3.230350746268657 -0.04295970149253803
H 1.03214776119403 3.981150746268657 -0.10175970149253821
H 2.4399477611940297 4.958250746268657 0.368240298507462
C 0.7418477611940297 4.4992507462686575 2.475440298507462
H -0.18475223880597014 4.424250746268656 1.901240298507462
H 0.57844776119403 4.189650746268656 3.511940298507462
H 1.1210477611940297 5.524350746268658 2.4432402985074617
N 3.00114776119403 -2.025349253731343 -2.490159701492538
N 1.7831477611940298 3.586450746268657 1.862540298507462
C -3.55075223880597 -3.8435492537313434 0.6444402985074619
H -2.62515223880597 -2.2736492537313433 1.7424402985074618
H -4.67195223880597 -1.3478492537313436 1.5102402985074619
H -4.83415223880597 -1.6757492537313432 -0.1945597014925382
H -3.7169522388059697 0.17335074626865676 -0.900559701492538
H -3.9132522388059705 -4.043149253731343 -0.34225970149253815
H -4.35435223880597 -3.9354492537313432 1.3449402985074619
H -2.78115223880597 -4.545049253731343 0.8904402985074619
H -5.24235223880597 1.138950746268657 1.5249402985074618
H -5.92805223880597 0.6501507462686567 -0.006059701492538094
H -4.89895223880597 2.059650746268657 0.08004029850746197
C 2.0653412637942905 -2.371010124036646 2.9818473524755724
O 2.702298767584032 -1.8308530017510671 2.0906173483744412
O 1.089343085954348 -3.110835686133796 2.812385974513666
O 2.2981839216725453 -2.2614016958841665 4.19115238990415
O 7.487984830522606 1.130651900380941 -3.6276541007478578
H 7.608981483039551 1.8001610502166105 -2.937665212963415
H 8.391534847183564 0.8742170517989485 -3.8659826137812585
O -1.1731681508228848 -2.103260730371671 4.082931415043488
H -1.3979092273692555 -1.345835224884478 4.643970993906022
H -1.4147274161194439 -2.872497401836185 4.620412585805386
O 5.84141623751622 2.384965662039546 7.607728523084396
H 5.845396831828815 3.1236518050354873 8.23486032256095
H 6.368495089144483 2.7084325629866313 6.861726517418246
O 5.016302893820015 -6.477758347011456 0.7920965167331518
H 4.838587472842265 -6.664337750429067 -0.14201948905361905
H 5.3872967978721285 -5.582614665946516 0.7855194576881486
O -1.4489175527838745 5.17362848532915 -0.24828284476252083
H -1.4845095488652311 5.21381974277516 -1.2157978211529923
H -1.0976781654368095 4.289631320293875 -0.06350771308714381
O 1.701981327951482 -0.8734807449948948 -7.215434551298495
H 2.1264352290659088 -1.3472558319143968 -7.9464225195600555
H 2.0769264284371465 -1.2836382465514102 -6.421615340244297
O -2.8359970500368634 2.0730845897489214 -5.5061788776403
H -3.0094444185929055 1.7154756278915295 -6.389920467495765
H -3.5959799420283387 1.7795062607274947 -4.981584069327008
O 0.1743023311361398 -9.812372703383112 -1.76983768857683
H 0.24143994529085155 -9.621260961873178 -2.7174326442000933
H -0.775511961215007 -9.935398782852122 -1.622598637656317
O -2.9398597387979386 -9.27488457212387 2.1861165812046655
H -3.486104973698068 -9.270281700592868 1.385765212228156
H -3.5497545742255148 -9.000497488182157 2.8873312146691505
O -4.6054194708259555 -3.552620811850568 -9.253528426943664
H -4.792145519081289 -3.0531420035392127 -10.06261535666804
H -5.413043037857154 -3.4556202284516684 -8.726938448786013
O -4.6614041723860815 -9.348604371394993 -2.2889864420977175
H -4.0037374399420305 -8.788424302979184 -2.7278943104323226
H -5.273244568332089 -8.716654475429234 -1.8824737077615128
O -1.8900867074336123 -5.0703647192258 -8.196677701100864
H -2.547735296240015 -5.248175888446838 -8.885770495027195
H -1.235621898750904 -5.775896282038088 -8.31009274583284
O 9.206914191636132 -0.8564413258023165 -2.3078758213167045
H 9.37360179295597 -0.21214854559447627 -1.6035538680607426
H 8.262847906817893 -0.7535922174647856 -2.5005487438659264
O 5.492619767141493 -0.9574515240877661 -5.737206011867302
H 6.241551863556847 -1.5029332414239933 -5.453449482584144
H 5.5211664831092095 -1.0056972771604618 -6.7045835889373455
O -2.8772781825175926 6.9635721488515685 -0.2556129980878179
H -2.897032050346829 7.589404675638638 -0.9951471690502547
H -2.009317270857482 7.1081397073636285 0.15022689787610566
O -10.590989265687659 -0.158522081648786 -6.79549718124899
H -10.295859320413127 0.5259892729074833 -6.1763769362353145
H -10.114468856011882 -0.9527854198910872 -6.5108289656248655
O -4.931110525805096 -3.2393899269593645 -2.1007649479938264
H -5.562038139903326 -2.6273925263914437 -2.5086336577110875
H -5.431639215493462 -4.06385246920156 -2.0075206905921883
O -10.19187960491268 1.4221905185846666 0.3181022861552754
H -9.48886162875577 2.06797192305972 0.4845338328478028
H -10.106171526542171 0.7897630144857445 1.0472466625727588
O -7.634039595367087 4.86346459098808 -6.244576028726887
H -7.0062066474204165 4.134173224639998 -6.35827409090361
H -8.011204031192598 4.987566247096028 -7.128492151217979
O -0.9362122535054325 0.4272281162175249 9.110069935868253
H -0.02355380731860257 0.6276671415348911 8.853464958064496
H -0.9232135204601186 -0.5233554386277057 9.297643608053399
C -5.7756622493113445 11.352642804258295 5.895695628236091
O -5.962353218502614 10.347252601317829 5.273477596390542
O -5.5889712801200755 12.358033007198763 6.517913660081639
O -5.3655442358058085 -14.657283399896869 -2.6706372283339386
H -5.482481990551128 -15.104078892721228 -1.818776496754555
H -4.993451039891442 -13.79461432266776 -2.4333385535653926
O 18.09376167342644 -12.204610201004488 1.9927509871430118
H 18.224603429172625 -11.389458198143025 1.4854295859738897
H 18.209809520154742 -12.909158511190832 1.3376887609512647
O 1.0850380001973159 -12.145907053097746 -1.019976737781782
H 1.3210966840858225 -12.333160577413347 -0.09900997817956148
H 0.12883976396361518 -11.991835928376936 -0.9898276772520935
O -6.618448306711056 13.1826263090679 10.53051045408098
H -5.993293644908686 12.935856436107889 11.228546008709873
H -6.675108908064487 12.389920704921739 9.976101448283334
O 12.1134688907863 -7.609379510141748 2.2799356100334345
H 12.441712172920315 -8.432890227406972 1.8887146965034844
H 12.259999992049739 -6.946903897344146 1.5881143591954991
O -4.373246960753488 12.587959640560404 -14.914947131134165
H -5.078439244218593 13.252424803215243 -14.927486981984513
H -3.5621688495260106 13.109246785765588 -14.818127948987764
O 4.91170156185587 -11.1016819719168 -16.328108585452405
H 4.50852015177766 -11.466255818830302 -17.13029186726152
H 5.040967231721356 -10.164204657639575 -16.53640792800966
O -3.7724751583403684 11.283818406956359 2.9249122189418686
H -3.464528440710856 10.423647221256813 2.602047375248029
H -3.4095521135994966 11.91676826155758 2.287242014638494
O -16.435542134709557 -8.945646760044495 -0.11560103518890319
H -17.135600911602722 -8.767026307773671 0.5301386955272802
H -15.9999881297752 -8.087900537925998 -0.23190267544857068
O 9.20716166290246 14.90538284758708 -1.4451670364865086
H 9.052834082398649 14.16599305857772 -0.8381636635926388
H 10.032711041953066 15.300807532302446 -1.1272527622443609
O -8.227946360966783 -13.785925610657124 0.11912971274781459
H -7.923807459265904 -13.860834633355365 -0.7978520339028916
H -8.18407979488381 -14.693731354798164 0.45517494718005036
O -0.8918973399033083 4.470652835243621 11.76207636906764
H -0.5493785476809547 3.6308755019819188 11.420869299365963
H -1.8538534805311802 4.355261466628984 11.74513057733134
O 6.813037609524774 3.9579965415905862 -6.009535760600454
H 6.863243613148363 4.057241851987067 -6.972134889243555
H 6.257141320309255 4.699489881268966 -5.726465297377922
O -5.4263572037535255 10.863527734996625 -1.4763459841364281
H -5.199783543831655 9.990252359222286 -1.8299302762023995
H -4.774683280754083 11.007902701882024 -0.7738939136580532
O 3.5711097293062393 -1.7562726151574921 16.04148226585727
H 3.5527058631229904 -2.605785446092974 16.507268273252826
H 3.7212970909022953 -2.0001134485402963 15.115767758737501
O -2.750882570910402 6.256666044749871 -4.808226274020371
H -3.2157383719796195 6.2225789164891046 -3.95868845332065
H -3.412951591878534 5.957618701937498 -5.4494729056147655
O 2.9727064325864383 12.77962421901986 -7.338570212896471
H 3.1504091853543326 13.71162136104176 -7.14166816663559
H 3.1977914687109457 12.319569057408414 -6.515984096378878
O 2.6744319305746584 -8.132144168559677 11.850417006184271
H 1.8294104697929723 -8.059098665878308 11.38183356403505
H 2.489319607753002 -8.752318900446028 12.571581809935301
O -3.3348149187044207 9.525036084203466 -15.401469038241757
H -2.9206063537713387 8.781965624053424 -15.865413984208928
H -3.6593454721410765 10.094805784158863 -16.114914448346013
O 9.208419453840882 -5.486520250263767 3.355237426603594
H 9.400523270699424 -4.918200547126975 4.116207988107053
H 8.337548554400074 -5.187289185512399 3.0535644402509554