194

C -5.0710522388059704 1.0783507462686561 0.47044029850746183
C -3.8153522388059704 0.1782507462686569 0.19534029850746193
C -4.11845223880597 -1.3219492537313435 0.5608402985074619
C -2.96945223880597 -2.3874492537313436 0.7034402985074619
C -2.52015223880597 0.7359507462686565 0.7384402985074618
C -2.20305223880597 0.7852507462686571 2.097440298507462
C -1.5755522388059702 1.205650746268656 -0.18965970149253808
C -0.9533522388059701 1.2695507462686564 2.508640298507462
H -2.91125223880597 0.4298507462686567 2.840840298507462
C -0.32655223880597006 1.6562507462686575 0.21554029850746192
H -1.7850522388059702 1.178550746268657 -1.2573597014925382
C 0.004447761194029898 1.6956507462686563 1.569740298507462
H -0.7158522388059702 1.2676507462686573 3.5705402985074617
H 0.3943477611940298 1.9193507462686572 -0.5551597014925382
C -1.76045223880597 -2.1592492537313435 -0.1734597014925381
C -0.5287522388059701 -1.936549253731343 0.464840298507462
C -1.8068522388059702 -2.121249253731343 -1.5681597014925381
C 0.6114477611940299 -1.614449253731343 -0.2582597014925381
H -0.4544522388059702 -1.954049253731343 1.5506402985074619
C -0.6479522388059701 -1.8270492537313432 -2.2998597014925384
H -2.74345223880597 -2.290549253731343 -2.092259701492538
C 0.5698477611940298 -1.5506492537313434 -1.6506597014925382
H 1.5072477611940298 -1.351949253731343 0.2991402985074618
H -0.7173522388059701 -1.7640492537313435 -3.3840597014925375
C 1.7791477611940298 -1.082849253731343 -2.4255597014925376
H 1.4739477611940297 -0.9102492537313429 -3.464259701492538
H 2.1252477611940295 -0.1337492537313434 -2.0010597014925384
C 1.3965477611940298 2.0964507462686566 1.997440298507462
H 1.51704776119403 1.8448507462686567 3.057640298507462
H 2.1256477611940294 1.5207507462686571 1.4165402985074618
C 3.94864776119403 -1.4275492537313434 -3.522959701492538
H 4.81734776119403 -2.087049253731343 -3.615159701492538
H 3.4305477611940303 -1.3641492537313429 -4.484459701492538
H 4.26984776119403 -0.441449253731343 -3.176459701492538
C 2.60904776119403 -3.4296492537313434 -2.8992597014925376
H 1.9825477611940296 -3.869549253731343 -2.119359701492538
H 2.06294776119403 -3.373349253731343 -3.845759701492538
H 3.5215477611940305 -4.019849253731343 -3.0234597014925377
C 3.7281477611940304 -2.060049253731343 -1.156659701492538
H 3.9048477611940298 -1.032549253731343 -0.8295597014925382
H 3.12924776119403 -2.623249253731343 -0.4404597014925382
H 4.68244776119403 -2.5769492537313434 -1.3005597014925383
C 3.1110477611940297 3.755250746268656 2.588740298507462
H 3.40124776119403 4.809350746268656 2.534540298507462
H 2.9823477611940303 3.461750746268656 3.634840298507462
H 3.86514776119403 3.1392507462686563 2.091540298507462
C 1.99744776119403 3.9574507462686572 0.40494029850746194
H 2.67914776119403 3.230350746268657 -0.04295970149253803
H 1.03214776119403 3.981150746268657 -0.10175970149253821
H 2.4399477611940297 4.958250746268657 0.368240298507462
C 0.7418477611940297 4.4992507462686575 2.475440298507462
H -0.18475223880597014 4.424250746268656 1.901240298507462
H 0.57844776119403 4.189650746268656 3.511940298507462
H 1.1210477611940297 5.524350746268658 2.4432402985074617
N 3.00114776119403 -2.025349253731343 -2.490159701492538
N 1.7831477611940298 3.586450746268657 1.862540298507462
C -3.55075223880597 -3.8435492537313434 0.6444402985074619
H -2.62515223880597 -2.2736492537313433 1.7424402985074618
H -4.67195223880597 -1.3478492537313436 1.5102402985074619
H -4.83415223880597 -1.6757492537313432 -0.1945597014925382
H -3.7169522388059697 0.17335074626865676 -0.900559701492538
H -3.9132522388059705 -4.043149253731343 -0.34225970149253815
H -4.35435223880597 -3.9354492537313432 1.3449402985074619
H -2.78115223880597 -4.545049253731343 0.8904402985074619
H -5.24235223880597 1.138950746268657 1.5249402985074618
H -5.92805223880597 0.6501507462686567 -0.006059701492538094
H -4.89895223880597 2.059650746268657 0.08004029850746197
C 2.352407199138045 -2.7645771327377355 2.3837870761182396
O 2.6186176996887016 -1.6280658526417318 2.743300049752169
O 2.646450081687906 -3.7945320966614418 3.0013330417035435
O 1.7477594839590045 -3.0606305564093517 1.346771215457912
O -3.8867049912641103 7.06523289542156 -5.577624936085865
H -4.461850351409228 6.421426981336465 -5.1375236788817995
H -4.367342422926807 7.9026657512709555 -5.4960417544329685
O -8.73508063160123 -2.364043856606651 -5.8198740954402535
H -8.730645155250464 -1.7365288649200248 -5.081516039577059
H -9.405994967537183 -3.0164720014470614 -5.56853087600571
O -1.595818262980643 8.251465998599242 -1.0408639498716887
H -2.199063139745316 8.772001964938584 -0.48940653238204757
H -2.116760748628708 8.051237550760842 -1.8330062600805554
O 3.6744894392322145 4.575215913238262 -7.86542888372063
H 3.5454098129583413 3.7550761691516192 -7.3657523812207675
H 2.813722466164559 5.017460642020218 -7.815812734731429
O 8.351096168056708 -1.4798711758816316 -4.340108168157532
H 8.703417922072463 -1.015673401829323 -5.114289778060623
H 8.709537017234581 -0.985597534197302 -3.5876617122041843
O -8.433175890558337 4.2780789281763845 2.39762310768601
H -7.604424994645168 4.1696490112273406 2.8879110460788926
H -8.149066843113832 4.578170503386433 1.5211591666432938
O -0.8653167743757626 -4.561240869932677 8.058650430215812
H -0.3110162418859881 -4.560199616317577 8.853456816936793
H -1.5081919123334133 -5.2675030705435155 8.2225626179392
O 9.563342640231134 -6.953363165839152 -3.5282379520282867
H 9.762962979213395 -7.397065563364305 -4.366239896891806
H 10.409236934636652 -6.954363333606783 -3.0555606978086387
O -10.15218537574926 -5.771685848384978 3.3238721466516354
H -9.942812951270895 -5.193634470773076 2.5748813926305756
H -10.011394289007017 -6.665230038474941 2.976426331379086
O 7.278221341614449 -2.7705590124118475 0.02889656016272779
H 7.683019312137172 -3.2628790006672586 0.7587780499436905
H 6.384557391942478 -2.5729066313875393 0.3471106793216858
O -10.523997970914197 -0.09251441383492764 3.4258808027626606
H -10.180963358678865 -0.42922603527280145 4.267260559886181
H -11.428083934605592 0.18560110691900622 3.636219272073374
O -9.069683380358608 1.4500569554393674 2.451413814381385
H -8.59816540359351 2.035157238916313 1.839616615333736
H -9.742783861155809 1.026210444472396 1.8980135774897628
O -2.745040163749673 -3.53652515904685 4.2767724336007875
H -3.032178948251947 -2.6382291799336395 4.05410000772907
H -2.362038157169279 -3.871045471779557 3.4519284679778317
O 8.284063254073763 5.052477137146806 0.6209956503535878
H 8.164285167443735 4.28590766734748 0.040485689341003606
H 8.223731173136532 4.681433392935981 1.514107359039458
O 3.755457950029958 -6.074910471919027 -5.43511697148305
H 2.840698918165751 -5.771745781136856 -5.536479887708911
H 3.8335602463290455 -6.800504745323723 -6.07259240317836
O 5.879283740160882 -4.258159581834235 4.3607749114453185
H 5.3261059016880985 -4.957815697072467 4.739513549997454
H 5.43625447947838 -4.0341962100223405 3.5285925837275514
O 3.1076792907654816 1.7601123208794751 6.143963340299708
H 3.460975559261021 2.468722206110961 6.702551859801629
H 3.3169516159495482 0.950183892522297 6.633026709558665
O 9.763136585881078 1.3629450866333985 -4.821849179816464
H 9.992365265859316 1.2073560963654493 -5.7504037744865
H 9.343338163777277 2.2362712379405654 -4.8275642950533495
O -0.7338969349695001 -10.483143349615766 -1.441059430960514
H -0.980759623974127 -11.063476271129513 -0.7053693672212229
H -0.3891003539559792 -9.688479047253812 -1.0067946401093826
O 5.454210914469371 7.160485588950966 6.594678226738575
H 4.635253532820995 7.096443352067279 6.080698892680708
H 5.913068566663367 6.327546351084024 6.408603442459102
C -15.777774634206796 7.1097095321700206 14.646291611201496
O -14.61559294786428 7.3943768852835845 14.679705430219766
O -16.93995632054931 6.825042179056458 14.612877792183225
O -10.300720387822523 12.866219417583956 12.206442378533593
H -11.248936858054536 12.751882959995783 12.370088511842416
H -10.070908098043347 13.662529197523067 12.708477228060765
O -17.728105411043973 -2.0662079148608687 -7.006907653936285
H -16.909711301046613 -2.5577879397994256 -6.840933208002455
H -18.315858998510517 -2.3402380745695734 -6.286897142700355
O -9.91592764721692 9.074320728459412 15.069224721116946
H -9.767054007795958 9.223840416539254 14.123472185163664
H -9.836138916381847 8.113857235545073 15.169751242545448
O 12.956562365742753 8.549610381386955 -1.9379745799184498
H 12.374037395304207 8.737071899871026 -1.1866489549040908
H 13.817273494755767 8.896524463905212 -1.659067935960909
O 18.89056218946868 7.554347961584393 -10.320137847485356
H 18.366672769198782 6.813700939014927 -10.660651019313194
H 18.428134986658367 8.33936350965108 -10.650097868843377
O -0.4830550107933407 -8.495442746546734 -4.937263264873739
H 0.3836097113460255 -8.895664372445502 -4.77088337888375
H -0.9731523574954624 -9.185916179799028 -5.40844579110782
O 3.1405758201212333 -14.037427156222014 -5.76139165784983
H 2.278226624935851 -13.708557117039877 -6.0566300696316695
H 3.226893735917476 -13.691759532142704 -4.860267329371258
O -14.421243875451907 3.285176800470892 3.214151514428008
H -14.527053852260162 3.2751967963097046 2.2509942036917083
H -15.24775036649535 2.9020498089456597 3.5443978965851475
O -10.7156764310311 -12.726512517442512 13.729001028921761
H -9.90686187843728 -12.73968709019416 14.262492178843923
H -10.416078937425846 -12.42843452961777 12.857018919415031
O -7.630713321839836 6.472307556644033 13.476117167372397
H -7.786874322855857 7.054689094502907 14.234676883560129
H -7.6945370866744085 7.062905577666776 12.710556948378258
O 9.085972038438813 4.497201865112997 5.983336776786289
H 8.957918658958434 5.091987696893213 5.229148800737101
H 8.721403977405066 4.989446941527343 6.73416755527098
O -10.005149153550562 -8.397203451924451 11.336508696192096
H -9.650068251570465 -7.591451586185762 10.931973356811685
H -9.24864393747429 -8.7741341089706 11.810412781559748
O 3.7723836725786395 7.117631947340522 -13.115987510377202
H 4.335008615595285 6.66333268096219 -12.470981536014463
H 4.209697278955828 7.972345598610227 -13.24707270523378
O 3.716841476762659 3.758986633714207 -15.176632929413312
H 4.071213572964009 3.6459455266335015 -14.28186509223775
H 4.0837991883567835 3.010094947517101 -15.67005488326869
O -14.020559782895864 12.806655904471501 4.3279409348271844
H -14.365870999245226 13.66124500446899 4.028934261107673
H -13.559174288850794 13.01663635115041 5.153769962046083
O 11.36862311061851 8.846104623330916 -8.561545793747682
H 11.238031715527896 8.907593798346857 -9.519738011303296
H 12.2122837218884 9.29829671218777 -8.41081082080847
O -7.888313363036021 18.77301267466156 8.877136112143459
H -7.670903676126993 18.021128592028138 9.448424753042797
H -8.848203541102912 18.708931591056366 8.761091271350352
O -12.93566283013499 4.286351920281684 -15.91184273354931
H -12.641443535317938 4.66889786920035 -15.071568397142874
H -12.53583099000258 4.859818717210924 -16.58283623332114
O -3.4675172691362315 -2.750852934689075 -9.43084638848845
H -3.352020118075677 -2.546361781615314 -8.490734090243468
H -4.401288802350779 -2.5548541342100854 -9.600012396507049
O -6.565901183975261 -10.644895456962747 -10.667756738692407
H -6.186962383511746 -10.063466705334854 -11.344006211286436
H -7.278181861273213 -10.116570172851702 -10.277256322281673