194

C -5.0710522388059704 1.0783507462686561 0.47044029850746183
C -3.8153522388059704 0.1782507462686569 0.19534029850746193
C -4.11845223880597 -1.3219492537313435 0.5608402985074619
C -2.96945223880597 -2.3874492537313436 0.7034402985074619
C -2.52015223880597 0.7359507462686565 0.7384402985074618
C -2.20305223880597 0.7852507462686571 2.097440298507462
C -1.5755522388059702 1.205650746268656 -0.18965970149253808
C -0.9533522388059701 1.2695507462686564 2.508640298507462
H -2.91125223880597 0.4298507462686567 2.840840298507462
C -0.32655223880597006 1.6562507462686575 0.21554029850746192
H -1.7850522388059702 1.178550746268657 -1.2573597014925382
C 0.004447761194029898 1.6956507462686563 1.569740298507462
H -0.7158522388059702 1.2676507462686573 3.5705402985074617
H 0.3943477611940298 1.9193507462686572 -0.5551597014925382
C -1.76045223880597 -2.1592492537313435 -0.1734597014925381
C -0.5287522388059701 -1.936549253731343 0.464840298507462
C -1.8068522388059702 -2.121249253731343 -1.5681597014925381
C 0.6114477611940299 -1.614449253731343 -0.2582597014925381
H -0.4544522388059702 -1.954049253731343 1.5506402985074619
C -0.6479522388059701 -1.8270492537313432 -2.2998597014925384
H -2.74345223880597 -2.290549253731343 -2.092259701492538
C 0.5698477611940298 -1.5506492537313434 -1.6506597014925382
H 1.5072477611940298 -1.351949253731343 0.2991402985074618
H -0.7173522388059701 -1.7640492537313435 -3.3840597014925375
C 1.7791477611940298 -1.082849253731343 -2.4255597014925376
H 1.4739477611940297 -0.9102492537313429 -3.464259701492538
H 2.1252477611940295 -0.1337492537313434 -2.0010597014925384
C 1.3965477611940298 2.0964507462686566 1.997440298507462
H 1.51704776119403 1.8448507462686567 3.057640298507462
H 2.1256477611940294 1.5207507462686571 1.4165402985074618
C 3.94864776119403 -1.4275492537313434 -3.522959701492538
H 4.81734776119403 -2.087049253731343 -3.615159701492538
H 3.4305477611940303 -1.3641492537313429 -4.484459701492538
H 4.26984776119403 -0.441449253731343 -3.176459701492538
C 2.60904776119403 -3.4296492537313434 -2.8992597014925376
H 1.9825477611940296 -3.869549253731343 -2.119359701492538
H 2.06294776119403 -3.373349253731343 -3.845759701492538
H 3.5215477611940305 -4.019849253731343 -3.0234597014925377
C 3.7281477611940304 -2.060049253731343 -1.156659701492538
H 3.9048477611940298 -1.032549253731343 -0.8295597014925382
H 3.12924776119403 -2.623249253731343 -0.4404597014925382
H 4.68244776119403 -2.5769492537313434 -1.3005597014925383
C 3.1110477611940297 3.755250746268656 2.588740298507462
H 3.40124776119403 4.809350746268656 2.534540298507462
H 2.9823477611940303 3.461750746268656 3.634840298507462
H 3.86514776119403 3.1392507462686563 2.091540298507462
C 1.99744776119403 3.9574507462686572 0.40494029850746194
H 2.67914776119403 3.230350746268657 -0.04295970149253803
H 1.03214776119403 3.981150746268657 -0.10175970149253821
H 2.4399477611940297 4.958250746268657 0.368240298507462
C 0.7418477611940297 4.4992507462686575 2.475440298507462
H -0.18475223880597014 4.424250746268656 1.901240298507462
H 0.57844776119403 4.189650746268656 3.511940298507462
H 1.1210477611940297 5.524350746268658 2.4432402985074617
N 3.00114776119403 -2.025349253731343 -2.490159701492538
N 1.7831477611940298 3.586450746268657 1.862540298507462
C -3.55075223880597 -3.8435492537313434 0.6444402985074619
H -2.62515223880597 -2.2736492537313433 1.7424402985074618
H -4.67195223880597 -1.3478492537313436 1.5102402985074619
H -4.83415223880597 -1.6757492537313432 -0.1945597014925382
H -3.7169522388059697 0.17335074626865676 -0.900559701492538
H -3.9132522388059705 -4.043149253731343 -0.34225970149253815
H -4.35435223880597 -3.9354492537313432 1.3449402985074619
H -2.78115223880597 -4.545049253731343 0.8904402985074619
H -5.24235223880597 1.138950746268657 1.5249402985074618
H -5.92805223880597 0.6501507462686567 -0.006059701492538094
H -4.89895223880597 2.059650746268657 0.08004029850746197
C 2.370020030582549 -0.1955056522731886 4.576010246082058
O 2.5348475953867595 -0.5558851806010265 3.4207033742757322
O 1.4740156153269652 -0.5978555436358595 5.326957725512509
O 3.0737247066649527 0.627322164970018 5.1730047991816175
O -5.380912253409031 8.586326469506409 8.795606056253916
H -5.24710420013032 8.50975272032063 9.752266509452124
H -5.130356968822364 7.714943491570071 8.453735175030477
O -1.6653938966226516 -5.9967244050871535 2.7530052176670354
H -1.3989755346512789 -5.5089499532288695 3.546771365483156
H -2.6195599418593147 -5.839616982747816 2.690986186206417
O -2.2817553552763026 2.2128470600901067 -4.0281673091654975
H -2.0811086179563345 2.275209492923638 -4.974116129490326
H -1.6531086513066597 1.5532132907146243 -3.698548504805678
O -8.669667638717598 2.8695708852051744 -1.8288277080140913
H -8.423654592301531 3.316325050750588 -2.652754678965345
H -8.69768729844234 1.9316118123293013 -2.070508531785325
O 0.021141413724176772 7.74121213270819 -6.570667589650362
H -0.7439232072756621 7.425321502493328 -6.066825756991708
H -0.32582394413474436 7.87148491505171 -7.465992104519865
O -2.0048150166320724 8.020386560102649 -1.1672564666440923
H -1.1157562788234252 8.118213457450127 -1.5400457043930675
H -1.913097116444784 7.296003708589152 -0.5302170208337014
O -0.29231191612576857 -2.0726980862047375 -8.849019976082769
H -0.2641404069939227 -1.8118683832146307 -9.78183377798073
H -0.9284247703604621 -2.8034086042812443 -8.829410800940654
O 0.25975506078470634 4.764851784685192 -6.233727049555254
H 0.8366401938024759 4.840125511639029 -7.008649475500942
H 0.6807504440658647 4.078754301787842 -5.694287455608099
O -9.169249163669736 -4.168711091876903 0.637109951511875
H -8.429372909831384 -3.9720623913359696 0.043073105447851256
H -8.959076869370046 -5.046286423830551 0.9901695608631063
O 2.597417513172414 5.52050003327023 -5.051945479539513
H 3.3501635286832654 5.3482029707118235 -5.637312471490958
H 2.497392860248561 6.484005856579516 -5.076715250563089
O 8.542482236929478 -0.776048337535705 1.9048388452036695
H 8.511034792661393 -0.8518847150763378 2.8703580107257847
H 8.410706287999766 0.1696793318592098 1.7399260836461279
O -4.8050515950136345 -1.9668130756269728 -4.8066970965633775
H -5.06625160733817 -2.0554372740766373 -3.877779628802749
H -4.693717761212659 -2.881416787313305 -5.106808363130896
O 6.8198546297493055 -6.017820809621115 -7.7728995243531305
H 6.9732540737405015 -6.001165339075193 -6.816260322363119
H 6.195970112386682 -5.291649636553885 -7.922584128442427
O -6.3322635597018895 1.5361266181731836 -4.146206865725485
H -6.632738914469478 1.404471193564922 -5.057990155355489
H -6.183221451920737 0.6371177441432705 -3.816765765035821
O 2.66451472467194 -4.534545749674956 3.4316294879773457
H 2.5363358532727793 -4.182632685976353 2.5379322632837127
H 2.210749930863025 -5.390541093133429 3.4134243190145703
O -5.747108946817486 3.905767862761295 7.366284068122536
H -6.340337401614237 4.657969934411348 7.220546630499846
H -5.787461826370303 3.4111703359077716 6.533993928902942
O -2.9339844689278998 1.737066220429332 -8.766540608011292
H -3.326136534009532 1.1324321249447364 -9.4143073293931
H -2.151328179421585 2.0877611454969323 -9.217566268398855
O 2.380299713563772 9.709560568151991 -0.4971099780806423
H 1.9833525211945897 10.47186981334367 -0.04957797021358523
H 2.1108966412609655 8.953239148168384 0.04544125324022552
O 3.4064238550049075 5.044422438442026 -8.924931200439245
H 4.242449136136877 5.243455360343971 -9.372608519730033
H 2.7424274744323256 5.114397068773016 -9.627194898772393
O -4.594651547661996 -5.203959954261157 -5.966040236202839
H -4.3848406484497024 -5.150557994404065 -6.910548030853128
H -3.7332223227563723 -5.334486384682192 -5.541935902647945
C 4.160761984173854 6.408836946882463 21.508483644816245
O 3.2265585263020995 6.313690373693584 22.250797113783953
O 5.094965442045608 6.503983520071342 20.76617017584854
O -19.923219239476005 -3.1384820801186084 -5.618281782288248
H -20.216140388586904 -2.4840152179065544 -6.2700775199007746
H -19.480368452281756 -3.8166123063056046 -6.150244676589167
O -4.41489335806265 6.030421420649976 17.677945552098095
H -4.068753863979488 6.5379330645711375 18.42733646398607
H -3.6296094311277844 5.834965968601663 17.14494624190872
O 14.303847408002163 0.5990596124183707 -7.073744062329136
H 14.589453656821872 1.3217571363388307 -6.494861763019188
H 14.168828370717577 -0.14587252669897843 -6.468923500525229
O -10.878562400794802 -2.2769725289855716 17.28204620439672
H -11.192545024896845 -1.3961286358437084 17.536007430918968
H -10.13595288552961 -2.4427410173345283 17.882057754625627
O 1.152918700511127 -11.671662989152424 -5.308126444830201
H 1.3951106914605456 -11.581348442491365 -6.242018129706644
H 0.5316266126824827 -10.943778621563208 -5.15600007196615
O 11.951464296594422 -2.644865349571301 14.86992759228651
H 11.495626002554818 -1.7953473935244915 14.772469658073248
H 12.455206556074984 -2.547242977879362 15.691922454106619
O 10.71605674834736 8.769286035426607 0.5805069724376235
H 11.473934589665186 9.035340058538646 1.122543679059353
H 10.426558896704748 9.59394954302192 0.16207772222331496
O -0.05280483292292909 10.691119497928309 6.831542554988214
H -0.538578802823533 9.85903902790774 6.72842563844512
H -0.3097605334147613 11.004632578430742 7.711681896591931
O 7.816917661220031 11.856203999343906 -7.1579310199916755
H 7.090545978615497 11.427692644896407 -7.635141198759719
H 8.233995678167501 12.421635407296527 -7.825235444508612
O 10.164440246036923 -12.94832149202573 -6.714202100066238
H 9.440259480565492 -13.046146110332188 -6.077837487698131
H 10.693858138508554 -12.21997488096016 -6.356165993534791
O -21.391072122079002 -9.005496322089458 7.013814055906075
H -21.073759570908077 -8.68674392612855 6.155515150023874
H -21.828529153717405 -8.233433501889188 7.403059854129408
O -10.369029959971394 -12.327212497496943 -1.1972111540640025
H -9.931728941058417 -12.220890483705759 -2.055366620830405
H -9.989760601111428 -11.621456819199 -0.6522105849999302
O 6.93237509521017 6.614118573606865 5.537119815411524
H 6.6319393514101 6.86552079195747 6.423405686536462
H 7.181582197534076 5.682329766458871 5.6300035240209425
O 12.837544896737551 6.117684418005723 0.3505279863986678
H 12.449381582817006 6.431785618892414 1.1809718642301317
H 13.659849763898995 5.685010562926157 0.6254279406969363
O 9.778518340435207 -6.639406266594219 -13.509671658094659
H 9.453837393833636 -7.430191343607139 -13.965970465662224
H 10.7136818524321 -6.592603446671579 -13.75915241121386
O 17.1041670446076 -4.19806750831125 -5.471283553469441
H 17.197752987385506 -4.218089030262438 -6.435549163596198
H 16.570428340099152 -3.4067369413533006 -5.304307886356977
O -20.67292950490195 3.1570725279243845 4.135585031821229
H -20.229459038858096 3.293630713538935 4.986263093480579
H -20.555609645147335 4.0001199135369365 3.672476944633157
O -11.150463261351936 -9.526292839448177 -8.467652878905124
H -11.20380388281028 -9.70597756277394 -7.51695022549251
H -10.249413951081852 -9.192420856442766 -8.592559178689573
O 10.567797325823312 5.201656131151783 -10.58819994098228
H 10.445363296726324 5.260920133760682 -9.628791246309435
H 9.773536324913048 5.621014471596606 -10.951861856822235
O 8.392951059924492 -6.769743510438624 11.762430734839528
H 8.020887018894504 -6.85491853278609 12.653093926983756
H 7.614638745360844 -6.72466097062155 11.186966183453244