194

C -5.0710522388059704 1.0783507462686561 0.47044029850746183
C -3.8153522388059704 0.1782507462686569 0.19534029850746193
C -4.11845223880597 -1.3219492537313435 0.5608402985074619
C -2.96945223880597 -2.3874492537313436 0.7034402985074619
C -2.52015223880597 0.7359507462686565 0.7384402985074618
C -2.20305223880597 0.7852507462686571 2.097440298507462
C -1.5755522388059702 1.205650746268656 -0.18965970149253808
C -0.9533522388059701 1.2695507462686564 2.508640298507462
H -2.91125223880597 0.4298507462686567 2.840840298507462
C -0.32655223880597006 1.6562507462686575 0.21554029850746192
H -1.7850522388059702 1.178550746268657 -1.2573597014925382
C 0.004447761194029898 1.6956507462686563 1.569740298507462
H -0.7158522388059702 1.2676507462686573 3.5705402985074617
H 0.3943477611940298 1.9193507462686572 -0.5551597014925382
C -1.76045223880597 -2.1592492537313435 -0.1734597014925381
C -0.5287522388059701 -1.936549253731343 0.464840298507462
C -1.8068522388059702 -2.121249253731343 -1.5681597014925381
C 0.6114477611940299 -1.614449253731343 -0.2582597014925381
H -0.4544522388059702 -1.954049253731343 1.5506402985074619
C -0.6479522388059701 -1.8270492537313432 -2.2998597014925384
H -2.74345223880597 -2.290549253731343 -2.092259701492538
C 0.5698477611940298 -1.5506492537313434 -1.6506597014925382
H 1.5072477611940298 -1.351949253731343 0.2991402985074618
H -0.7173522388059701 -1.7640492537313435 -3.3840597014925375
C 1.7791477611940298 -1.082849253731343 -2.4255597014925376
H 1.4739477611940297 -0.9102492537313429 -3.464259701492538
H 2.1252477611940295 -0.1337492537313434 -2.0010597014925384
C 1.3965477611940298 2.0964507462686566 1.997440298507462
H 1.51704776119403 1.8448507462686567 3.057640298507462
H 2.1256477611940294 1.5207507462686571 1.4165402985074618
C 3.94864776119403 -1.4275492537313434 -3.522959701492538
H 4.81734776119403 -2.087049253731343 -3.615159701492538
H 3.4305477611940303 -1.3641492537313429 -4.484459701492538
H 4.26984776119403 -0.441449253731343 -3.176459701492538
C 2.60904776119403 -3.4296492537313434 -2.8992597014925376
H 1.9825477611940296 -3.869549253731343 -2.119359701492538
H 2.06294776119403 -3.373349253731343 -3.845759701492538
H 3.5215477611940305 -4.019849253731343 -3.0234597014925377
C 3.7281477611940304 -2.060049253731343 -1.156659701492538
H 3.9048477611940298 -1.032549253731343 -0.8295597014925382
H 3.12924776119403 -2.623249253731343 -0.4404597014925382
H 4.68244776119403 -2.5769492537313434 -1.3005597014925383
C 3.1110477611940297 3.755250746268656 2.588740298507462
H 3.40124776119403 4.809350746268656 2.534540298507462
H 2.9823477611940303 3.461750746268656 3.634840298507462
H 3.86514776119403 3.1392507462686563 2.091540298507462
C 1.99744776119403 3.9574507462686572 0.40494029850746194
H 2.67914776119403 3.230350746268657 -0.04295970149253803
H 1.03214776119403 3.981150746268657 -0.10175970149253821
H 2.4399477611940297 4.958250746268657 0.368240298507462
C 0.7418477611940297 4.4992507462686575 2.475440298507462
H -0.18475223880597014 4.424250746268656 1.901240298507462
H 0.57844776119403 4.189650746268656 3.511940298507462
H 1.1210477611940297 5.524350746268658 2.4432402985074617
N 3.00114776119403 -2.025349253731343 -2.490159701492538
N 1.7831477611940298 3.586450746268657 1.862540298507462
C -3.55075223880597 -3.8435492537313434 0.6444402985074619
H -2.62515223880597 -2.2736492537313433 1.7424402985074618
H -4.67195223880597 -1.3478492537313436 1.5102402985074619
H -4.83415223880597 -1.6757492537313432 -0.1945597014925382
H -3.7169522388059697 0.17335074626865676 -0.900559701492538
H -3.9132522388059705 -4.043149253731343 -0.34225970149253815
H -4.35435223880597 -3.9354492537313432 1.3449402985074619
H -2.78115223880597 -4.545049253731343 0.8904402985074619
H -5.24235223880597 1.138950746268657 1.5249402985074618
H -5.92805223880597 0.6501507462686567 -0.006059701492538094
H -4.89895223880597 2.059650746268657 0.08004029850746197
C 2.8942576456352413 -0.6338913415391929 3.260606021199869
O 3.3518227076482394 -0.5460897735027312 4.389632414724565
O 3.561193264828723 -0.6342612972229487 2.219535318949633
O 1.6934493099293286 -0.7359637294900173 2.9844014721475185
O -1.6505119762490619 -8.969560798880273 -2.8490175104340434
H -2.1749827349741873 -9.180513078197778 -3.636035245934992
H -1.3186414327852232 -9.829931374684412 -2.551382903959138
O 2.0667536836874647 -5.863866271732888 -6.370358418083096
H 2.3189930569393242 -5.5701007766841855 -5.482076655689935
H 2.897520416814937 -5.842424458929141 -6.868684443986215
O -6.624117496895206 3.1036931923883495 -5.352152909950672
H -6.563103972296606 3.0884478287558665 -6.319113242954964
H -6.49269082550896 4.036238071769281 -5.124010361773586
O -5.9823597050299835 -2.434780347158141 3.607850029778193
H -5.593126359345855 -3.2921142554064047 3.8368551154756463
H -5.406740944959687 -1.7913614094799801 4.047892139118018
O 0.8258363244353506 -4.13780872216748 3.52543871888908
H 0.22332581786725414 -3.8331687260543528 4.22052354762817
H 1.6102996356698775 -3.5795092355824276 3.6344384478145555
O -5.351318499361574 -5.2199370428296135 4.614984911921554
H -5.887035628249297 -5.447831681203307 3.840363360119116
H -4.439689437888194 -5.363487547831514 4.319540075969288
O -1.109625603645588 -8.138732969002072 -0.9190691825559009
H -1.0163938689858538 -8.462072941301198 -0.010374259676973474
H -0.20037779214319196 -8.11404972500147 -1.253166622000906
O -2.18203914942903 8.756221822202644 0.9572230847886856
H -2.22980610779897 8.790836129192504 1.9244291250612315
H -2.3207717935043704 7.819996315218957 0.7493842100779984
O 1.322365271511758 1.0007969785684225 9.403147007590903
H 1.7480287172803783 1.4402911986671776 8.651733128070319
H 0.5327086232771903 1.5367035314901865 9.571100836765652
O -5.316548999714632 -1.010674496298723 -6.445633298040551
H -4.812990600248929 -0.5940428882930413 -7.161045346050745
H -4.728988639945716 -1.7101345525502234 -6.122383553049362
O 1.373027099042473 2.493757935762426 6.574475854375114
H 1.6441301613243957 3.3809109741837875 6.854529372369642
H 0.7381511161045828 2.6573611547489 5.86094350239245
O 6.905281774628253 -5.008813313653716 -4.799704603958797
H 7.52463415540462 -4.668625122627511 -5.462759639391727
H 6.36301971326357 -5.644566523663872 -5.290348728621784
O -4.23536303846637 3.979846652295011 -5.166560303843706
H -4.2763349598366425 4.120750943226929 -4.208732219396292
H -3.3517665363284794 4.293143056505145 -5.411640961625351
O 4.954887053081818 -5.976219525942637 4.68697833921336
H 5.046809551090643 -5.048946780703361 4.95284083599738
H 4.851077969374952 -6.450893904514216 5.525351676556353
O -1.367295030406515 -1.1084828345842372 -7.527429060126407
H -2.205947675485962 -1.223941320776451 -7.998914410659645
H -0.8713551736556269 -0.48658951071936407 -8.080831532580413
O 3.3198027293325225 10.592128861672869 -0.25856172572660796
H 4.040821914460399 10.960352600981482 0.2738948165255435
H 3.1450861964255994 9.730154365088033 0.14817657424808495
O -2.72045965791387 -9.375640142381718 2.0943644987286176
H -2.761803800368925 -8.84637050302898 2.9050010804618145
H -3.5926395447257335 -9.253345073737586 1.690250522818142
O 6.976936630059823 2.4598414312298176 -1.852997628163392
H 6.120384231203544 2.3459071726742664 -1.4144724525566197
H 7.384067012305542 1.5819392528688434 -1.803052043959067
O -0.8325720261289482 7.579988082056082 -6.451410386923654
H -0.956320042533805 7.625091341198217 -5.491400240440492
H -1.5102325460775226 8.176719543039153 -6.803049018868491
O 6.624774808827935 -4.616042523586854 3.260250752534406
H 6.111958960026104 -4.11426802041443 2.608936995514239
H 7.332266056550155 -5.0229747645836635 2.737924963458499
C 14.2906353467467 5.285256630661454 4.224192672495294
O 14.050293522193229 4.454161969597891 5.051438542247421
O 14.530977171300169 6.116351291725017 3.3969468027431677
O 3.0419781442630756 -14.947311219668276 -4.0411253905542655
H 3.367932833273615 -15.304782267758156 -3.2015211103188874
H 2.934459729914453 -14.00029387046893 -3.8663115604623615
O -3.0498832605694037 -9.816924676267465 -16.11508755216781
H -2.18330612280047 -9.42115375805866 -15.937952571160771
H -3.2120509712493397 -10.380244872929541 -15.343508694276132
O 1.1504312877881486 11.78713501158873 -15.413377551788196
H 0.6368559011010323 11.63562430552613 -16.220998864680315
H 1.6953691775477528 10.99027604283318 -15.32958957819895
O 3.512913854524096 15.740851509242843 -3.059857539925309
H 3.809239849235562 16.54261652877869 -3.516290574670766
H 3.8305395119717236 15.019609295308925 -3.623670944227357
O -4.476280338023518 0.16551064225578216 9.31105429293779
H -4.642511870384427 0.9122650968289574 8.716334006480311
H -4.720520903022364 0.5039030432994149 10.185582207658051
O 3.9392286407156645 12.184273710197452 -19.071522313503653
H 3.715450401149111 12.00217488229731 -19.996579432428693
H 3.9073067544009468 11.313680772887928 -18.64724542869741
O 9.10607518406747 14.831228782308134 3.810556262838351
H 8.987326273213423 14.695024900707644 2.8585507188902413
H 10.057603310158271 14.709573319403926 3.9475092398183755
O -4.317012283545522 12.049984444988864 -5.3027091788903515
H -5.190713064863218 12.466563054515687 -5.257139850284939
H -3.829459258551996 12.44747285437652 -4.565649509309842
O -9.619219893468268 5.5068027796377095 6.090167206565284
H -9.783090291825262 5.603708467602416 5.140049773253796
H -9.884592282152278 6.361447127695051 6.461815532214389
O -2.787651097136746 -0.5161459356269451 -11.858080207903773
H -2.91173014157906 -0.45545922335276856 -10.898971835203568
H -2.0184922185480976 -1.096932302221637 -11.958298769887014
O -5.712733211290971 -16.59282003970641 -12.819220226019013
H -5.250234247799052 -16.845622294393173 -12.006107020066612
H -5.55618248653894 -15.639225939908656 -12.890719230980766
O -14.332712730195942 8.302559878490305 0.07609253844251196
H -14.240214182218116 9.189263383299396 -0.3036024313441179
H -13.511685947442636 8.174592435279159 0.5745915853621222
O -3.5458064156298574 1.2885106889832492 13.29089018402825
H -4.294310382706077 1.1379399002998047 12.694201315549536
H -3.96134102733658 1.550617616652231 14.126110447935723
O -9.519434025238379 6.580677419146981 0.22114556497321014
H -9.965911987837801 6.267508115989552 1.022113587663855
H -9.348630939092853 5.771166788990492 -0.2833153252123496
O 3.6076468685374055 8.959919188931677 18.672928096125077
H 3.349168548731196 8.128674453816467 18.247265664809596
H 3.705312083341891 9.58028522714271 17.93497862038061
O 12.867849496845583 3.2414432762042154 18.163715835799103
H 13.396259182041616 3.6181127277644993 17.44408350901527
H 13.31017623106764 3.5539444991979128 18.96724056480244
O 0.7045221693892525 10.411190307202991 -6.362826655663294
H 1.1803537599717582 10.165008888267455 -7.170258611480385
H -0.18251206967229044 10.644104976393342 -6.675689181237159
O 3.159113086275409 7.205611807771919 11.46298395418048
H 3.049986368483879 7.045933928520374 12.41248997903855
H 2.279994914821095 7.489847475672128 11.170882482064801
O 18.044328456867092 5.109970979620584 9.570688512925447
H 17.150369191686703 5.239554753657753 9.921419513272474
H 18.176549702842138 4.151072065088419 9.615324351909806
O 13.774940513691538 -13.611875397074291 -4.602941831274232
H 13.978220540448541 -13.85189829855302 -3.6864083652254447
H 13.422402302456145 -12.711730245078911 -4.536477861650347