194

C -5.0710522388059704 1.0783507462686561 0.47044029850746183
C -3.8153522388059704 0.1782507462686569 0.19534029850746193
C -4.11845223880597 -1.3219492537313435 0.5608402985074619
C -2.96945223880597 -2.3874492537313436 0.7034402985074619
C -2.52015223880597 0.7359507462686565 0.7384402985074618
C -2.20305223880597 0.7852507462686571 2.097440298507462
C -1.5755522388059702 1.205650746268656 -0.18965970149253808
C -0.9533522388059701 1.2695507462686564 2.508640298507462
H -2.91125223880597 0.4298507462686567 2.840840298507462
C -0.32655223880597006 1.6562507462686575 0.21554029850746192
H -1.7850522388059702 1.178550746268657 -1.2573597014925382
C 0.004447761194029898 1.6956507462686563 1.569740298507462
H -0.7158522388059702 1.2676507462686573 3.5705402985074617
H 0.3943477611940298 1.9193507462686572 -0.5551597014925382
C -1.76045223880597 -2.1592492537313435 -0.1734597014925381
C -0.5287522388059701 -1.936549253731343 0.464840298507462
C -1.8068522388059702 -2.121249253731343 -1.5681597014925381
C 0.6114477611940299 -1.614449253731343 -0.2582597014925381
H -0.4544522388059702 -1.954049253731343 1.5506402985074619
C -0.6479522388059701 -1.8270492537313432 -2.2998597014925384
H -2.74345223880597 -2.290549253731343 -2.092259701492538
C 0.5698477611940298 -1.5506492537313434 -1.6506597014925382
H 1.5072477611940298 -1.351949253731343 0.2991402985074618
H -0.7173522388059701 -1.7640492537313435 -3.3840597014925375
C 1.7791477611940298 -1.082849253731343 -2.4255597014925376
H 1.4739477611940297 -0.9102492537313429 -3.464259701492538
H 2.1252477611940295 -0.1337492537313434 -2.0010597014925384
C 1.3965477611940298 2.0964507462686566 1.997440298507462
H 1.51704776119403 1.8448507462686567 3.057640298507462
H 2.1256477611940294 1.5207507462686571 1.4165402985074618
C 3.94864776119403 -1.4275492537313434 -3.522959701492538
H 4.81734776119403 -2.087049253731343 -3.615159701492538
H 3.4305477611940303 -1.3641492537313429 -4.484459701492538
H 4.26984776119403 -0.441449253731343 -3.176459701492538
C 2.60904776119403 -3.4296492537313434 -2.8992597014925376
H 1.9825477611940296 -3.869549253731343 -2.119359701492538
H 2.06294776119403 -3.373349253731343 -3.845759701492538
H 3.5215477611940305 -4.019849253731343 -3.0234597014925377
C 3.7281477611940304 -2.060049253731343 -1.156659701492538
H 3.9048477611940298 -1.032549253731343 -0.8295597014925382
H 3.12924776119403 -2.623249253731343 -0.4404597014925382
H 4.68244776119403 -2.5769492537313434 -1.3005597014925383
C 3.1110477611940297 3.755250746268656 2.588740298507462
H 3.40124776119403 4.809350746268656 2.534540298507462
H 2.9823477611940303 3.461750746268656 3.634840298507462
H 3.86514776119403 3.1392507462686563 2.091540298507462
C 1.99744776119403 3.9574507462686572 0.40494029850746194
H 2.67914776119403 3.230350746268657 -0.04295970149253803
H 1.03214776119403 3.981150746268657 -0.10175970149253821
H 2.4399477611940297 4.958250746268657 0.368240298507462
C 0.7418477611940297 4.4992507462686575 2.475440298507462
H -0.18475223880597014 4.424250746268656 1.901240298507462
H 0.57844776119403 4.189650746268656 3.511940298507462
H 1.1210477611940297 5.524350746268658 2.4432402985074617
N 3.00114776119403 -2.025349253731343 -2.490159701492538
N 1.7831477611940298 3.586450746268657 1.862540298507462
C -3.55075223880597 -3.8435492537313434 0.6444402985074619
H -2.62515223880597 -2.2736492537313433 1.7424402985074618
H -4.67195223880597 -1.3478492537313436 1.5102402985074619
H -4.83415223880597 -1.6757492537313432 -0.1945597014925382
H -3.7169522388059697 0.17335074626865676 -0.900559701492538
H -3.9132522388059705 -4.043149253731343 -0.34225970149253815
H -4.35435223880597 -3.9354492537313432 1.3449402985074619
H -2.78115223880597 -4.545049253731343 0.8904402985074619
H -5.24235223880597 1.138950746268657 1.5249402985074618
H -5.92805223880597 0.6501507462686567 -0.006059701492538094
H -4.89895223880597 2.059650746268657 0.08004029850746197
C 1.3098750988019137 -1.2856226718592072 3.861278123733322
O 1.4314410022910846 -2.4123585145551747 4.316759814356631
O 1.9868227940414542 -0.8120551914407697 2.941437309515988
O 0.49108106464047085 -0.4445794320017271 4.249699264650836
O -9.993078616076014 0.6786493105008664 0.2630963757360685
H -10.574335106083208 1.3974016322283642 -0.027598223002628597
H -9.110703399108067 1.079075041094213 0.26902554596059214
O -5.512311320610461 -2.746670443185705 -2.9286806240770344
H -5.853419256723527 -1.9200563403876822 -2.5554221909826103
H -4.694884142570457 -2.907233208987275 -2.433711583489942
O 3.641556111729051 4.646065133298711 -8.943513441535114
H 4.33424858064434 5.307734131646601 -9.08959094505068
H 3.59719723211434 4.16436601588177 -9.78313251848553
O -0.49170939041403816 5.712847434233058 6.021796040374211
H 0.34244250264803666 5.536467925283109 5.561309075277984
H -1.0132261238938294 6.214616616155988 5.377428188077899
O 1.7077937615685777 6.23901833342826 -6.071616658936174
H 1.8277730927252072 6.1626550499472 -7.030126422022184
H 2.568122947573473 5.982580862694313 -5.706876395719007
O -1.217311345540634 6.350470554641518 -0.47106436852467004
H -0.535446933730416 6.247471333130585 -1.1518135449287612
H -0.7249549036009206 6.641098661959483 0.3112925715079735
O 7.412745105850147 -4.024799691369235 1.3445255383814456
H 7.48748215998352 -4.497308809202034 2.1872098583995268
H 7.568163441399014 -3.0980942118379478 1.5812195169316057
O -11.461873730902012 0.9417671265292673 2.9931171164676607
H -11.070467196961237 0.34029693252890425 2.341962843028842
H -11.701760272351047 1.7242993620635851 2.474407475260481
O 6.501545677765171 2.8832710943509055 -3.6384671332478282
H 6.2510858627678125 2.345641433874489 -2.8721828608348403
H 6.902474577245647 2.2471720703919793 -4.2496921274847095
O -6.632001637687896 -5.335974311942321 -6.460034873742907
H -6.706671868119717 -5.025754460969871 -5.545072930463356
H -6.830718152412343 -4.549898260708431 -6.990655390451694
O -3.4752841455655528 7.273178439737273 6.758274950604337
H -2.580509721358351 6.901370140913795 6.748043840661504
H -3.849819244884613 6.958821315985772 7.59485429676628
O -4.889859434538176 0.1991897951493522 -10.964201883977273
H -5.585192656533962 0.23980417103829588 -10.290533167351576
H -4.926240469703565 -0.7150378489513862 -11.283304029602007
O -5.605008374410309 4.373011125279645 -4.6022581020207
H -5.747970595085774 4.6232619078133705 -3.677107462286392
H -5.733546227078924 3.4125879469867617 -4.607481446651827
O 6.739007251680848 3.768366159379899 -0.18637569747989868
H 6.348044401270941 3.124404523203263 -0.7958252996883761
H 7.545514939284929 3.3330833460532157 0.12832442415643763
O 5.530078356175917 -1.9339112469640218 -9.50730940627956
H 5.822507968436243 -2.160590434760222 -8.611726453899754
H 4.640549700360069 -1.571836336841892 -9.378458817446994
O 5.3790073810577 -1.2614905011815503 9.679005430652467
H 5.921687536364255 -1.6129058907199947 8.957220954557283
H 5.979867803508659 -1.2494401516494023 10.439126135612021
O 6.7268606991840425 -6.1243518976090225 -0.8298858062029084
H 6.57761871036884 -5.628776122177447 -0.0106795827891224
H 7.386653405232273 -6.7900122989577625 -0.5838537769429268
O -11.01597468483823 -5.131138077988121 -3.6764106477561427
H -11.591016295636754 -5.7177288294378465 -3.162401121517684
H -11.22375007977372 -4.246341812360989 -3.340364671896166
O -1.910905273358774 -11.945716090754573 1.7257267837005217
H -2.460297321309563 -12.560596823896821 1.2167499487081126
H -2.523315725038083 -11.56591396865887 2.373542908095048
O -5.85370012391691 8.623220133994016 2.406600824796903
H -6.469807227166646 8.719053926578612 3.1483523185089632
H -5.201060131898656 7.982006455220521 2.7257684974584224
C 11.240916977649107 -16.049249054679755 -12.412227450480472
O 11.715866915925766 -17.078346472066507 -12.027260803926618
O 10.765967039372448 -15.020151637293004 -12.797194097034325
O 9.3084192185952 7.457084431237073 -5.749342709063963
H 10.1060449469674 6.918894136708316 -5.863849308060572
H 8.786253086016128 6.965912235715847 -5.097380786376549
O -7.082831590850779 -7.744004304324729 -8.02437529075571
H -7.594578764039748 -6.929917621791886 -7.904604422195076
H -6.596607851130726 -7.83946815089684 -7.1916478003782744
O -5.038723206245496 15.730761752384986 6.129316543508137
H -5.515297449430091 15.749996845919679 6.97280593811233
H -4.470528491601077 14.948955902014117 6.199290273407496
O -9.14364048208968 8.153386149298553 15.943058610296887
H -9.984767999187676 8.631680164941551 15.891032737111939
H -9.214154440928453 7.4798061368292625 15.250036465837741
O 4.595901106210438 8.343114991337236 -11.298312709422675
H 4.345917850728004 7.84824601537249 -12.093033053635661
H 3.8514854138570436 8.946547789229408 -11.154520916520436
O -20.31128644847146 9.826361880502454 4.484257629179996
H -20.122238578367632 9.510671624442093 3.5878381280881504
H -21.26884069403716 9.974855345907947 4.483032137042791
O -9.404457086563756 5.313153691676814 -13.45470560456748
H -9.612365778578049 5.450705855668717 -12.518318539905621
H -8.891237551267366 6.098162730848969 -13.698279949087114
O 14.366243539269075 2.474443172151732 -8.9008278102758
H 13.487800925624487 2.1923691607491302 -8.604618115085866
H 14.739249920956313 2.926940158731424 -8.129416985450991
O -9.251179772596211 -0.36093035301137455 8.485185928744258
H -9.077106851607551 -0.6804796255028185 9.383269576033678
H -8.605960750423916 -0.8346172927060262 7.9390403063231485
O 8.206622800038344 -4.227409496946593 -3.6338541494755976
H 7.955907700803271 -5.006969865888743 -4.151922607394363
H 9.174432355435622 -4.266382445254626 -3.6057878336877103
O -7.430616302358612 -6.026803668880245 5.843627046096612
H -8.198872227672211 -6.595724319155423 5.685262012673778
H -7.4465027167747015 -5.400844117495456 5.1041108487302855
O 9.09448605667095 17.8102322327612 10.46628695686502
H 8.192652665414814 17.614153498434543 10.170961676436278
H 9.129068713490879 17.452499912726346 11.3661722669739
O 9.12833085629458 -5.049571294315384 -13.638488076211285
H 9.062556241749654 -5.3311521337208365 -12.71363495929964
H 8.550505864467922 -5.66627366769394 -14.112574994180745
O -5.6465271728317425 -10.549238022147048 11.520912848173284
H -5.773099839240404 -10.983936977977088 12.377641238515569
H -4.701030515091775 -10.659704588873096 11.339818529824232
O -3.3409452279074476 7.544661508378493 -15.473637555255891
H -3.6375513803055113 8.015146357176864 -14.68014139627918
H -2.863998448562651 6.776312513054582 -15.12560948834553
O 5.673183911147402 3.3017449325678325 9.907853931462926
H 6.485017567616481 2.8545997849417386 9.625091331251218
H 5.924978154876702 3.7450112357926724 10.731914965337342
O 11.418330122489788 2.1228862842916216 -10.346083760911014
H 11.461678631107612 2.886950833951888 -9.751698677271573
H 10.89134849241043 2.438834788455666 -11.0953693196771
O -1.468067223751211 -12.768351590264182 -0.8152797744271434
H -1.9545725264751077 -13.562894887934647 -0.5488573740016682
H -0.5415491124726364 -12.991384659515187 -0.6398306826846705
O 9.5835481660742 18.51206419455636 -1.2217072569992249
H 9.536860783011747 17.96262518988385 -0.424898355626218
H 9.01395974607288 19.268995030327126 -1.0177791177938396
O 18.76994084740189 4.303528271087011 -0.608810168799211
H 18.427442874022056 4.70629504456255 -1.4208701550778182
H 19.7115904028887 4.532084165285836 -0.6133115217592656