194

C -5.0710522388059704 1.0783507462686561 0.47044029850746183
C -3.8153522388059704 0.1782507462686569 0.19534029850746193
C -4.11845223880597 -1.3219492537313435 0.5608402985074619
C -2.96945223880597 -2.3874492537313436 0.7034402985074619
C -2.52015223880597 0.7359507462686565 0.7384402985074618
C -2.20305223880597 0.7852507462686571 2.097440298507462
C -1.5755522388059702 1.205650746268656 -0.18965970149253808
C -0.9533522388059701 1.2695507462686564 2.508640298507462
H -2.91125223880597 0.4298507462686567 2.840840298507462
C -0.32655223880597006 1.6562507462686575 0.21554029850746192
H -1.7850522388059702 1.178550746268657 -1.2573597014925382
C 0.004447761194029898 1.6956507462686563 1.569740298507462
H -0.7158522388059702 1.2676507462686573 3.5705402985074617
H 0.3943477611940298 1.9193507462686572 -0.5551597014925382
C -1.76045223880597 -2.1592492537313435 -0.1734597014925381
C -0.5287522388059701 -1.936549253731343 0.464840298507462
C -1.8068522388059702 -2.121249253731343 -1.5681597014925381
C 0.6114477611940299 -1.614449253731343 -0.2582597014925381
H -0.4544522388059702 -1.954049253731343 1.5506402985074619
C -0.6479522388059701 -1.8270492537313432 -2.2998597014925384
H -2.74345223880597 -2.290549253731343 -2.092259701492538
C 0.5698477611940298 -1.5506492537313434 -1.6506597014925382
H 1.5072477611940298 -1.351949253731343 0.2991402985074618
H -0.7173522388059701 -1.7640492537313435 -3.3840597014925375
C 1.7791477611940298 -1.082849253731343 -2.4255597014925376
H 1.4739477611940297 -0.9102492537313429 -3.464259701492538
H 2.1252477611940295 -0.1337492537313434 -2.0010597014925384
C 1.3965477611940298 2.0964507462686566 1.997440298507462
H 1.51704776119403 1.8448507462686567 3.057640298507462
H 2.1256477611940294 1.5207507462686571 1.4165402985074618
C 3.94864776119403 -1.4275492537313434 -3.522959701492538
H 4.81734776119403 -2.087049253731343 -3.615159701492538
H 3.4305477611940303 -1.3641492537313429 -4.484459701492538
H 4.26984776119403 -0.441449253731343 -3.176459701492538
C 2.60904776119403 -3.4296492537313434 -2.8992597014925376
H 1.9825477611940296 -3.869549253731343 -2.119359701492538
H 2.06294776119403 -3.373349253731343 -3.845759701492538
H 3.5215477611940305 -4.019849253731343 -3.0234597014925377
C 3.7281477611940304 -2.060049253731343 -1.156659701492538
H 3.9048477611940298 -1.032549253731343 -0.8295597014925382
H 3.12924776119403 -2.623249253731343 -0.4404597014925382
H 4.68244776119403 -2.5769492537313434 -1.3005597014925383
C 3.1110477611940297 3.755250746268656 2.588740298507462
H 3.40124776119403 4.809350746268656 2.534540298507462
H 2.9823477611940303 3.461750746268656 3.634840298507462
H 3.86514776119403 3.1392507462686563 2.091540298507462
C 1.99744776119403 3.9574507462686572 0.40494029850746194
H 2.67914776119403 3.230350746268657 -0.04295970149253803
H 1.03214776119403 3.981150746268657 -0.10175970149253821
H 2.4399477611940297 4.958250746268657 0.368240298507462
C 0.7418477611940297 4.4992507462686575 2.475440298507462
H -0.18475223880597014 4.424250746268656 1.901240298507462
H 0.57844776119403 4.189650746268656 3.511940298507462
H 1.1210477611940297 5.524350746268658 2.4432402985074617
N 3.00114776119403 -2.025349253731343 -2.490159701492538
N 1.7831477611940298 3.586450746268657 1.862540298507462
C -3.55075223880597 -3.8435492537313434 0.6444402985074619
H -2.62515223880597 -2.2736492537313433 1.7424402985074618
H -4.67195223880597 -1.3478492537313436 1.5102402985074619
H -4.83415223880597 -1.6757492537313432 -0.1945597014925382
H -3.7169522388059697 0.17335074626865676 -0.900559701492538
H -3.9132522388059705 -4.043149253731343 -0.34225970149253815
H -4.35435223880597 -3.9354492537313432 1.3449402985074619
H -2.78115223880597 -4.545049253731343 0.8904402985074619
H -5.24235223880597 1.138950746268657 1.5249402985074618
H -5.92805223880597 0.6501507462686567 -0.006059701492538094
H -4.89895223880597 2.059650746268657 0.08004029850746197
C -0.34142379508040954 -2.062219414422361 4.236620475876219
O -0.5454482294362035 -3.2209286310805334 4.5645571771116895
O 0.6532309695600689 -1.3977804539118661 4.5493731433847895
O -1.0980473160398494 -1.3747454473363379 3.5412437603399947
O 4.863586811142134 7.736630410926711 2.8670352919324267
H 4.896622890216551 7.019718007045768 2.2159495990002016
H 3.91585936206466 7.8826843991011515 3.0064729450374745
O 4.460832786335761 4.98759835234848 6.031368972130657
H 4.436915153487734 5.4393800659335625 6.888275377176783
H 3.532748102027215 4.772655425995536 5.854111246028976
O 2.0927616573138406 6.579469883706466 8.220048429199657
H 1.9555834937095704 6.783946824333942 7.282851177239438
H 2.51035445561273 7.3784743929298156 8.575252586480591
O -3.819246101811363 -5.788028064375339 -3.2764221069809203
H -3.1836278395736364 -5.270592010342687 -2.759492023123332
H -4.436203341734871 -5.12474651128446 -3.620490835195674
O -4.195627693569665 4.0489621408663385 4.858381622388278
H -3.936495280370232 3.922495220817856 3.9332741327078136
H -4.808117115939686 3.3183963400566485 5.0318528374994145
O 4.19371046661395 -9.922333751287717 -1.8453916296855968
H 3.705491580210337 -10.726020649738157 -1.6115176355820853
H 3.760214698644779 -9.61229177293887 -2.6546612603491653
O -3.7214913176057567 3.687071872222355 1.2311653823496462
H -3.2338457206863005 3.6370252436031216 0.39530387248756593
H -3.5029927993075534 4.565335205177404 1.5773934282791715
O 9.098498804197316 0.591220792358226 -5.642258617021004
H 9.74103985456977 0.6374483470383616 -4.918399950792187
H 8.983363570531452 1.5146670985905075 -5.912356269314879
O -6.656000853232464 -5.125074701531261 -0.13248935354992286
H -7.492207352020111 -5.33118914531469 0.3116309953974705
H -6.001330193226494 -5.659728261740831 0.3413395626029204
O -6.24757181308946 -6.035534654972372 3.3602310464552976
H -6.491395707987887 -5.2173979027672015 2.9017885529321297
H -6.4884449144471965 -5.8671378520678275 4.2835861298949425
O 0.938237642496889 3.306549708204047 7.779478815234907
H 1.1151469029651002 3.974340852509671 7.099974982981125
H 0.27273912322470717 3.7219678326309715 8.348250691336522
O 3.559649714628451 -7.680071816287439 -4.797997737507183
H 3.5292041389761835 -7.65307505636839 -5.7661462791974945
H 3.837137288544061 -6.7860759294149515 -4.547530284776291
O 9.080370382184963 1.073747944961906 -1.025298601874585
H 8.558713059021303 1.8778184139334881 -1.1678176357526797
H 9.98901814404253 1.3975187047753255 -0.933137415569985
O 7.232642200231464 -4.207452983040898 -3.5436475110036465
H 7.318505008543809 -4.140678858381711 -2.580768416140372
H 6.910467247510349 -5.109872627604081 -3.6878835302415807
O 0.05661474412254863 6.906409407763162 1.3689102769792978
H -0.09631832887793257 6.1801091126088625 0.7459602682776305
H -0.1922415689371615 7.6989705702149065 0.8700322522844164
O 5.816535793576918 1.2810240254159138 4.020739603396807
H 6.245737004727884 1.9930386006152867 4.518523614741287
H 4.877544889708356 1.5200008342487163 4.032909714003967
O 4.738486561882937 0.23140153703463118 -6.706035335041409
H 5.643601308667268 0.2140246321545305 -6.360444977493162
H 4.7432889984792475 -0.43609268361517195 -7.408452836461931
O 2.657864864531348 1.6627129908204756 -4.958136547335538
H 2.476712879844298 2.006960915377994 -5.84563003000557
H 1.9128452900575212 1.0690320935556632 -4.780792897396541
O 9.747323519131935 -0.882826385777282 4.012022756988957
H 9.572957297548708 -1.818631825013517 4.19321866634308
H 9.597872435561202 -0.4475104345942884 4.864739791277106
O 2.1180906072300543 -7.437135636743465 3.3603338896933983
H 2.3146548672413396 -7.3000471755428125 2.4214320831173044
H 2.3220149881199954 -8.372861120230404 3.5079638688026087
C 5.474076060032937 1.8934804037439554 -10.604207808677268
O 5.825094512116147 2.4720209621143714 -11.591575585099788
O 5.123057607949727 1.3149398453735404 -9.616840032254744
O -14.50378328268189 -9.019593139693939 4.230516308130848
H -13.909497628760693 -9.036411254200935 3.465330664337211
H -15.29660808101541 -8.570149068002552 3.90128871228129
O -5.468056449655466 -3.121721547567354 -13.229771403649147
H -5.4905816021857365 -2.823527866372079 -12.308066188898412
H -5.037339945554415 -3.988571521127337 -13.18486749809486
O 2.938800078938934 -10.194603938156082 -11.162639299174375
H 3.906873909205782 -10.165481588593863 -11.131779862879256
H 2.7327509742453566 -10.132012752406604 -12.107408082645467
O -9.471849326257082 10.577464276710977 -2.069577565325227
H -9.706181716008796 11.517688142382859 -2.0636809193059933
H -8.590865457284579 10.55833779667803 -2.472645232934262
O -12.742731568908265 -17.934428222118086 -11.426392897954312
H -13.46097963878814 -18.45749628301055 -11.039757577932924
H -13.156343631628442 -17.0815235919586 -11.627491624267716
O 19.763573664178274 -7.546193671350143 1.5258708699357548
H 19.388655193904363 -7.154683425311037 2.3290665028881987
H 20.407810823188246 -8.189443085417913 1.8577603373073917
O -23.92502684661956 -4.635743094307452 8.137963781075202
H -23.151074125236434 -4.989670163152841 8.601321280099626
H -23.92985270017992 -3.6960259287619106 8.37433278119253
O 9.49974337600565 -0.5410735378394698 -17.319627210191264
H 8.81852086110672 -0.27737426584909386 -17.956310754855743
H 9.755619776294932 0.2903803704826924 -16.89280920399799
O -13.102119474198098 -5.272380900411615 17.03709178258205
H -12.680728522255926 -6.052186371412804 17.42862779614643
H -12.497175860287225 -4.546622215152132 17.25221848724439
O -1.7992553645855445 -18.24159522980445 10.040705573894206
H -0.9963560861557283 -18.743065314054068 10.24770282073475
H -2.2416127088160414 -18.776627471465357 9.364671236978804
O 11.621921171555437 -11.422556102343735 5.375208385505235
H 11.13773963960789 -11.67255636429112 6.1764795443816585
H 12.471598869324042 -11.880083353831083 5.462835826190637
O -5.175727194683748 15.527637064789534 2.9881945508444447
H -5.373571631687094 15.008059127087582 2.194555021649852
H -4.23682426898883 15.35414582875136 3.153494373710255
O 16.12718058787707 0.2157536917173184 -2.979468875569786
H 16.978988132036235 0.16932355893794426 -2.519865233957117
H 15.888869437150419 -0.71214085833435 -3.125007336891013
O 12.015315666082156 10.490684302781196 7.268388894412942
H 12.468563678782479 10.167023761803758 8.061343779697975
H 11.240496199341244 9.914093951938883 7.189901280263522
O -6.651375329361765 12.247971413352738 16.770642224900918
H -7.130606358116598 11.427373281702973 16.581106781483335
H -5.88582166220649 11.957577409116764 17.288870793496773
O 12.285206516595784 -3.2613052499121427 7.324489997817763
H 12.12672168417871 -3.011605154477287 6.401722542207435
H 13.12178822965814 -2.8247407262205155 7.544727138926056
O 15.821195745782928 9.828787522305952 -0.7505414700695141
H 15.510651681893606 10.290051257165537 0.043036193544131685
H 15.005670662299408 9.582162014253061 -1.212122060310099
O -15.91827538730456 2.826791885729532 3.126169297828457
H -15.179142544662806 2.974849702925919 2.5172942034163412
H -15.59800924167713 2.1294595932626095 3.717878021904565
O -11.813092167521344 -0.8135973542683796 -18.575168485644603
H -11.25274213812239 -1.1097669305274493 -19.308147873861707
H -11.937530990146364 -1.6109007089458345 -18.038713189889428
O -10.418599114079953 -2.769151237670136 9.476973430706321
H -10.586042977436183 -2.7208845114795195 8.523768189078275
H -11.301123153697382 -2.8669165576879667 9.864987871158144