194

C -5.0710522388059704 1.0783507462686561 0.47044029850746183
C -3.8153522388059704 0.1782507462686569 0.19534029850746193
C -4.11845223880597 -1.3219492537313435 0.5608402985074619
C -2.96945223880597 -2.3874492537313436 0.7034402985074619
C -2.52015223880597 0.7359507462686565 0.7384402985074618
C -2.20305223880597 0.7852507462686571 2.097440298507462
C -1.5755522388059702 1.205650746268656 -0.18965970149253808
C -0.9533522388059701 1.2695507462686564 2.508640298507462
H -2.91125223880597 0.4298507462686567 2.840840298507462
C -0.32655223880597006 1.6562507462686575 0.21554029850746192
H -1.7850522388059702 1.178550746268657 -1.2573597014925382
C 0.004447761194029898 1.6956507462686563 1.569740298507462
H -0.7158522388059702 1.2676507462686573 3.5705402985074617
H 0.3943477611940298 1.9193507462686572 -0.5551597014925382
C -1.76045223880597 -2.1592492537313435 -0.1734597014925381
C -0.5287522388059701 -1.936549253731343 0.464840298507462
C -1.8068522388059702 -2.121249253731343 -1.5681597014925381
C 0.6114477611940299 -1.614449253731343 -0.2582597014925381
H -0.4544522388059702 -1.954049253731343 1.5506402985074619
C -0.6479522388059701 -1.8270492537313432 -2.2998597014925384
H -2.74345223880597 -2.290549253731343 -2.092259701492538
C 0.5698477611940298 -1.5506492537313434 -1.6506597014925382
H 1.5072477611940298 -1.351949253731343 0.2991402985074618
H -0.7173522388059701 -1.7640492537313435 -3.3840597014925375
C 1.7791477611940298 -1.082849253731343 -2.4255597014925376
H 1.4739477611940297 -0.9102492537313429 -3.464259701492538
H 2.1252477611940295 -0.1337492537313434 -2.0010597014925384
C 1.3965477611940298 2.0964507462686566 1.997440298507462
H 1.51704776119403 1.8448507462686567 3.057640298507462
H 2.1256477611940294 1.5207507462686571 1.4165402985074618
C 3.94864776119403 -1.4275492537313434 -3.522959701492538
H 4.81734776119403 -2.087049253731343 -3.615159701492538
H 3.4305477611940303 -1.3641492537313429 -4.484459701492538
H 4.26984776119403 -0.441449253731343 -3.176459701492538
C 2.60904776119403 -3.4296492537313434 -2.8992597014925376
H 1.9825477611940296 -3.869549253731343 -2.119359701492538
H 2.06294776119403 -3.373349253731343 -3.845759701492538
H 3.5215477611940305 -4.019849253731343 -3.0234597014925377
C 3.7281477611940304 -2.060049253731343 -1.156659701492538
H 3.9048477611940298 -1.032549253731343 -0.8295597014925382
H 3.12924776119403 -2.623249253731343 -0.4404597014925382
H 4.68244776119403 -2.5769492537313434 -1.3005597014925383
C 3.1110477611940297 3.755250746268656 2.588740298507462
H 3.40124776119403 4.809350746268656 2.534540298507462
H 2.9823477611940303 3.461750746268656 3.634840298507462
H 3.86514776119403 3.1392507462686563 2.091540298507462
C 1.99744776119403 3.9574507462686572 0.40494029850746194
H 2.67914776119403 3.230350746268657 -0.04295970149253803
H 1.03214776119403 3.981150746268657 -0.10175970149253821
H 2.4399477611940297 4.958250746268657 0.368240298507462
C 0.7418477611940297 4.4992507462686575 2.475440298507462
H -0.18475223880597014 4.424250746268656 1.901240298507462
H 0.57844776119403 4.189650746268656 3.511940298507462
H 1.1210477611940297 5.524350746268658 2.4432402985074617
N 3.00114776119403 -2.025349253731343 -2.490159701492538
N 1.7831477611940298 3.586450746268657 1.862540298507462
C -3.55075223880597 -3.8435492537313434 0.6444402985074619
H -2.62515223880597 -2.2736492537313433 1.7424402985074618
H -4.67195223880597 -1.3478492537313436 1.5102402985074619
H -4.83415223880597 -1.6757492537313432 -0.1945597014925382
H -3.7169522388059697 0.17335074626865676 -0.900559701492538
H -3.9132522388059705 -4.043149253731343 -0.34225970149253815
H -4.35435223880597 -3.9354492537313432 1.3449402985074619
H -2.78115223880597 -4.545049253731343 0.8904402985074619
H -5.24235223880597 1.138950746268657 1.5249402985074618
H -5.92805223880597 0.6501507462686567 -0.006059701492538094
H -4.89895223880597 2.059650746268657 0.08004029850746197
C 1.7680834909508105 -3.173754950322246 2.161416771937676
O 2.5084470924437126 -2.2083762712587047 2.2694965674315166
O 1.2830338610092291 -3.5845073649670507 1.1009259542230678
O 1.389321799153557 -3.8893509071424415 3.095820534670614
O 1.9698999287695922 4.760870657186987 6.602243280846338
H 2.220490200616287 4.311389297683813 5.781183977254339
H 1.8763934329431313 4.040942637264753 7.24405487755452
O 1.7009852662528107 -3.960014804057194 -7.415131153635551
H 1.279460849908037 -4.830805624618188 -7.360287100613286
H 1.7562798354800127 -3.6682323250971494 -6.492760599093664
O 4.434266887313518 -7.488824558654618 -3.6975084473751756
H 3.77443138200356 -7.824577938135982 -4.322691725301895
H 4.516163196323305 -8.196778933625815 -3.040960245161723
O -0.6110117344685184 10.472830413935753 1.3537032902111388
H -1.0654731166220661 10.323405302994995 2.1963801827692704
H -1.3288665217610847 10.662309733856997 0.7310123267442472
O -1.021767549181769 11.626403220185228 5.685839491263954
H -1.5603388768897402 11.231698253927451 4.983617110901209
H -1.4091552737644224 11.276893906638772 6.5023784890386835
O -7.023875982641693 4.592010554560755 3.3651017910185526
H -7.325946140695281 5.201373991040751 2.6748864776599097
H -6.2278089847361375 5.015853621860991 3.7194975210255103
O 2.490908496075585 3.9691253740242267 -5.9492148036050345
H 1.57176812976783 3.8974838064941957 -5.6508595963009105
H 3.008971303601679 3.876951387651788 -5.135533767821114
O 10.124177272965225 0.6615733548032003 -1.356311195276855
H 9.679857079527146 0.9692117085403562 -0.5520067964867936
H 9.516947933995066 0.910884870520495 -2.0691072687260625
O -1.8804302580367638 5.370935428673622 -6.108386542204855
H -1.4895305560187735 5.165504957773665 -5.245853585450118
H -2.812931644570631 5.1279487904684125 -6.006599499482587
O 1.3741810744877367 7.571757698550784 4.471608571003032
H 0.6092115175850266 7.68175729923615 3.887066851567086
H 1.1164719249932964 8.033303422433965 5.283719082775908
O -2.1384012638621197 0.25174655232305965 5.804903260010811
H -2.653115267216632 0.5178124878619906 5.0282142813349395
H -1.5455133005005175 -0.43676091302901154 5.468149229069239
O -3.2379344466366904 -2.748635242029345 8.055244025407854
H -3.265546012488742 -2.6968308420156735 7.088020544266904
H -4.156140583867182 -2.595200987994116 8.324162904516243
O -1.6483473647830948 -3.4921169838834833 -9.889920866848714
H -1.950777767762992 -2.8484446121073232 -9.23174985102876
H -1.2015887344392333 -4.172366820009435 -9.363965706246697
O 0.13754570472632177 2.086346223044186 -3.881718532644835
H -0.2247143137122296 2.145243208342074 -4.778527420348187
H -0.5731559102877283 1.6729893045937416 -3.3688820902135546
O 3.322415074694821 -6.269600585946044 -1.4376803240370934
H 4.143039551514078 -5.868010869158399 -1.114773953218028
H 2.8860833167556645 -6.589220197771535 -0.6336779328402478
O -0.6647291994714655 -7.128394748702215 -2.6572055900931906
H -0.2980995124785122 -6.518937845605199 -3.315318280126475
H -0.31459925550912304 -7.993319335950762 -2.918503169519131
O -5.6348799973536465 1.2714445100095824 -3.0012354828250363
H -5.452326347167193 1.988814980628191 -3.6265523061938305
H -5.602595212568787 0.47137668464367766 -3.5469562097409795
O 6.378368279550763 -4.373417019901769 2.9973854957999597
H 6.417211670918284 -3.676199659632311 2.325562230062637
H 7.215878262303503 -4.28376000304019 3.4764476967895455
O 1.1344284267128177 -1.1476290956063013 8.124758729970274
H 0.8186536281252894 -1.8849348145257494 8.668481003126049
H 1.2476229292965613 -0.42217514214125584 8.757107929611383
O -5.046693906912805 -5.297821195767856 -4.22344519765319
H -5.587936335784499 -5.652440388524387 -4.944742097839082
H -4.69070959513654 -6.08697004841842 -3.788150811714803
C -1.9077346586083337 17.87969361899652 10.939703129571647
O -1.8432485653855126 17.90738942380881 12.134647790832854
O -1.9722207518311556 17.85199781418423 9.744758468310442
O 5.519216657841754 6.707435533533015 -8.097376171572197
H 6.074199963094861 6.402932768269769 -8.831023875676406
H 5.848832273952402 7.5989494507024915 -7.908912845142006
O -15.438080738916213 10.399921188450064 -12.815539285936278
H -15.553880887361041 11.301409374611708 -13.151510613181845
H -16.06764885558466 10.341113428008896 -12.081272591821367
O 9.87221812838922 0.6822830486294227 15.537059692351725
H 9.84389066329859 0.8893779769351706 16.483250266333297
H 10.51526415348353 1.3123867671746439 15.1786980624499
O -6.495152140632123 -6.242296275942334 12.321321926781078
H -5.543478226643468 -6.111061853856132 12.194587382187995
H -6.892053821058047 -5.863750041784376 11.522489185226311
O -13.265104954431006 1.8527164598718864 9.683728125945478
H -13.744808782088183 1.4598868880231013 10.428400216272593
H -13.756219220146134 2.6656550337901876 9.491635446889836
O -9.259476105479784 2.538456808952244 13.939093613447183
H -10.021855040554428 2.025905860124066 13.630812506160687
H -9.33399233311094 2.51093464972415 14.904832608658129
O 3.955076021070648 -17.123706776731158 -3.603543354634118
H 3.3349526028190404 -17.865177758135392 -3.5354618830622586
H 3.849822853858377 -16.65264717011619 -2.7633132896474297
O -12.260940855800008 -8.653084246177313 -6.4654729532424735
H -12.800183704031166 -8.939784441109957 -5.7131515420377035
H -12.9112074367602 -8.435885384889401 -7.150264872471649
O -8.441099014244047 -0.7952852008046102 -8.18875939104456
H -8.356575606084139 -1.7567192241448282 -8.102343135994506
H -9.246838456654041 -0.6774283156767849 -8.713979011653691
O 2.5300151545666845 6.925183139391723 11.966537508967464
H 1.8018023268931829 6.286084105997797 11.951508868752457
H 2.417228600281139 7.427874467832636 11.145841118221956
O 13.00126637340514 -13.958735330127492 -13.02734017958103
H 13.117899798578499 -14.212893032398249 -12.099564418198582
H 12.603805311577325 -13.076265085731638 -12.980086434897448
O -3.554565972088157 16.29622663097463 -10.836821327860118
H -3.35087180871481 16.112361292733052 -9.907483078297052
H -4.522859221189466 16.282761834078233 -10.87130070270025
O 12.306871751257795 -7.662993960152229 -11.10277515224945
H 12.477620524569371 -7.64878984001774 -10.149040149073096
H 11.345628387506174 -7.767188996350328 -11.166935376494282
O -9.419728538692695 12.902218259296866 8.33731429958809
H -9.456204147055761 13.559000526836765 9.048843596201866
H -10.091865438495471 13.202293749630973 7.70711700324015
O 2.0035057425563103 4.2993759723143885 13.850925690059157
H 1.678186797071695 3.902094269616737 14.672693412296063
H 2.6586882688672206 4.948506823260476 14.148124175699412
O -18.908582238942223 7.3594095005302265 -1.7872644833120561
H -18.36500657776609 6.557230249129126 -1.7884073299797614
H -18.494450440501623 7.921811617225987 -1.1155795445524608
O 2.491355118603688 -6.035141440551261 11.276172619681699
H 2.595968467907319 -6.052194922127164 12.239361377305881
H 1.6759183561434496 -5.530175508589304 11.13820799274364
O 1.3619935242764427 10.178227574963701 14.944295072771261
H 0.5703684053489475 9.973421283270431 15.464248350350966
H 1.0831434842109915 10.907971914677686 14.370990792209096
O -3.605072198221854 18.89248255877607 7.763039483900252
H -3.517505244032904 18.893322391474648 6.798001308429919
H -2.753112077482813 19.23217890471364 8.075661123469525
O 0.6039469575361105 -12.521974669515325 13.968391338965173
H -0.015941683981467225 -11.783368726580498 13.872648505923479
H 0.20539294497558513 -13.231689560511033 13.442633393831809