194

C -5.0710522388059704 1.0783507462686561 0.47044029850746183
C -3.8153522388059704 0.1782507462686569 0.19534029850746193
C -4.11845223880597 -1.3219492537313435 0.5608402985074619
C -2.96945223880597 -2.3874492537313436 0.7034402985074619
C -2.52015223880597 0.7359507462686565 0.7384402985074618
C -2.20305223880597 0.7852507462686571 2.097440298507462
C -1.5755522388059702 1.205650746268656 -0.18965970149253808
C -0.9533522388059701 1.2695507462686564 2.508640298507462
H -2.91125223880597 0.4298507462686567 2.840840298507462
C -0.32655223880597006 1.6562507462686575 0.21554029850746192
H -1.7850522388059702 1.178550746268657 -1.2573597014925382
C 0.004447761194029898 1.6956507462686563 1.569740298507462
H -0.7158522388059702 1.2676507462686573 3.5705402985074617
H 0.3943477611940298 1.9193507462686572 -0.5551597014925382
C -1.76045223880597 -2.1592492537313435 -0.1734597014925381
C -0.5287522388059701 -1.936549253731343 0.464840298507462
C -1.8068522388059702 -2.121249253731343 -1.5681597014925381
C 0.6114477611940299 -1.614449253731343 -0.2582597014925381
H -0.4544522388059702 -1.954049253731343 1.5506402985074619
C -0.6479522388059701 -1.8270492537313432 -2.2998597014925384
H -2.74345223880597 -2.290549253731343 -2.092259701492538
C 0.5698477611940298 -1.5506492537313434 -1.6506597014925382
H 1.5072477611940298 -1.351949253731343 0.2991402985074618
H -0.7173522388059701 -1.7640492537313435 -3.3840597014925375
C 1.7791477611940298 -1.082849253731343 -2.4255597014925376
H 1.4739477611940297 -0.9102492537313429 -3.464259701492538
H 2.1252477611940295 -0.1337492537313434 -2.0010597014925384
C 1.3965477611940298 2.0964507462686566 1.997440298507462
H 1.51704776119403 1.8448507462686567 3.057640298507462
H 2.1256477611940294 1.5207507462686571 1.4165402985074618
C 3.94864776119403 -1.4275492537313434 -3.522959701492538
H 4.81734776119403 -2.087049253731343 -3.615159701492538
H 3.4305477611940303 -1.3641492537313429 -4.484459701492538
H 4.26984776119403 -0.441449253731343 -3.176459701492538
C 2.60904776119403 -3.4296492537313434 -2.8992597014925376
H 1.9825477611940296 -3.869549253731343 -2.119359701492538
H 2.06294776119403 -3.373349253731343 -3.845759701492538
H 3.5215477611940305 -4.019849253731343 -3.0234597014925377
C 3.7281477611940304 -2.060049253731343 -1.156659701492538
H 3.9048477611940298 -1.032549253731343 -0.8295597014925382
H 3.12924776119403 -2.623249253731343 -0.4404597014925382
H 4.68244776119403 -2.5769492537313434 -1.3005597014925383
C 3.1110477611940297 3.755250746268656 2.588740298507462
H 3.40124776119403 4.809350746268656 2.534540298507462
H 2.9823477611940303 3.461750746268656 3.634840298507462
H 3.86514776119403 3.1392507462686563 2.091540298507462
C 1.99744776119403 3.9574507462686572 0.40494029850746194
H 2.67914776119403 3.230350746268657 -0.04295970149253803
H 1.03214776119403 3.981150746268657 -0.10175970149253821
H 2.4399477611940297 4.958250746268657 0.368240298507462
C 0.7418477611940297 4.4992507462686575 2.475440298507462
H -0.18475223880597014 4.424250746268656 1.901240298507462
H 0.57844776119403 4.189650746268656 3.511940298507462
H 1.1210477611940297 5.524350746268658 2.4432402985074617
N 3.00114776119403 -2.025349253731343 -2.490159701492538
N 1.7831477611940298 3.586450746268657 1.862540298507462
C -3.55075223880597 -3.8435492537313434 0.6444402985074619
H -2.62515223880597 -2.2736492537313433 1.7424402985074618
H -4.67195223880597 -1.3478492537313436 1.5102402985074619
H -4.83415223880597 -1.6757492537313432 -0.1945597014925382
H -3.7169522388059697 0.17335074626865676 -0.900559701492538
H -3.9132522388059705 -4.043149253731343 -0.34225970149253815
H -4.35435223880597 -3.9354492537313432 1.3449402985074619
H -2.78115223880597 -4.545049253731343 0.8904402985074619
H -5.24235223880597 1.138950746268657 1.5249402985074618
H -5.92805223880597 0.6501507462686567 -0.006059701492538094
H -4.89895223880597 2.059650746268657 0.08004029850746197
C -1.196409786221864 4.6414151627068705 -1.9028809969382103
O -1.2785878730322982 4.00715108257995 -0.8623372269271035
O -0.14052232693166664 4.992392083492411 -2.441906356721581
O -2.156430905971142 5.030459986927129 -2.5779009661115473
O 9.394087057024002 -2.049376495901017 2.109719371483726
H 9.13729370048955 -1.3881000765314253 2.7698239284483805
H 8.798134029837462 -2.794142034021286 2.280383447714263
O -8.753882430360493 -3.0293210864387787 -0.7416879177441684
H -9.343288280804787 -3.618999340719407 -0.24787858531859408
H -8.34318493805496 -3.607879781371925 -1.4016571220493392
O -9.006679997659983 -3.6938598760569024 1.923760064505507
H -9.930314674283808 -3.4062207353493674 1.9797070552291596
H -8.537518829210482 -3.091990863315329 2.520922884698277
O 9.225036351542382 1.5399438376880108 -2.1300881295068743
H 8.914944035719536 2.386835215238148 -1.7757082384311298
H 9.236415326854196 0.9535391719039814 -1.3587503104110046
O 11.73802885309939 3.772408550256747 1.0364766553411386
H 11.203735962193223 3.369854542343539 1.737510701832567
H 12.08455447517975 3.014599408755407 0.541898812530909
O 1.4393400976111512 -5.202965787190534 4.395913850844284
H 1.448966531376342 -6.053811821715727 3.932302252406841
H 1.5534972086842955 -4.549992903527888 3.689120732957076
O 2.51691316349361 1.8369388695214923 9.50360046861459
H 2.591077800215447 2.1641867288278442 8.59454832371897
H 3.4348844370136606 1.6808684275886394 9.77180319501173
O 1.8562674314562289 -6.757417266064983 8.930224032194237
H 2.346976167541084 -6.641584417525098 8.102724760636164
H 1.7524759646001988 -5.855520991615263 9.269004766359549
O 2.777752032138116 5.128260444111043 -5.007790925011715
H 2.780545233624191 4.745245762360525 -5.897880419663241
H 3.300816275865787 4.504023818699866 -4.482724856093844
O -5.244381029613542 -6.611913241747198 3.310715287741022
H -5.395840115644678 -6.376013241683198 2.383149283551337
H -6.136009464861224 -6.6740886544286635 3.685007814804626
O -7.601362675386627 0.9289019014204588 -1.196441202659352
H -8.197596897129118 1.2057949128148577 -0.484540668901956
H -8.180204184147344 0.463571522845009 -1.8188334349457493
O -6.292046422924384 -1.5713300386227305 -5.594367870587713
H -7.190575112876934 -1.4939442515445385 -5.9488040287184045
H -6.368792418665467 -2.2514166067662553 -4.908398296722757
O -9.147395840356111 -8.13455123860206 0.18879522338021015
H -9.256075239148029 -7.1735619617638156 0.12833238371704336
H -9.508622151829902 -8.356592385962461 1.0601018428190363
O 5.541402919415499 -3.871717594259612 6.911274945452423
H 4.692248541124855 -3.42746925897862 7.054619339587312
H 5.743782561848569 -3.6950067455587425 5.980265976333392
O 6.056438996530829 -2.5022351660670745 -6.5997341364362825
H 5.461550596869989 -1.943416975811628 -7.122034221721163
H 5.478302221563446 -2.8977763173554685 -5.930206682654316
O -2.2273234658283743 -8.526801997145554 -7.4800777199631625
H -1.6174660355119181 -9.039412651414716 -8.031685904019158
H -1.6507217019235152 -8.09771310062045 -6.8301738278062745
O -1.7329122157343466 -4.426106983081865 -7.288923357409087
H -1.2336977972803393 -3.686711416282548 -6.9107084487855035
H -1.049545956347314 -5.005011040021944 -7.658845771828234
O -1.1306943319635396 -5.464277309453653 2.755266828524343
H -0.24853508914437983 -5.654967814479905 2.4025636126309227
H -1.2377306962606494 -6.1030930004181165 3.475974587602632
O -9.471487859146741 1.3755917152168937 4.137414246890637
H -9.198827713024968 1.4044097745268993 3.2080094260109213
H -8.790346693146564 0.8346596797637169 4.564498769321969
O 5.900350203934634 3.116487577674654 -1.522786086675521
H 5.764940883382922 2.893715741797532 -2.4560622419198634
H 5.9109295490147 4.085376511624909 -1.512575532017983
C 14.249067923360062 -5.255345625641519 -3.7875329266584554
O 14.010042361779075 -4.997878594074733 -4.9318212495330185
O 14.48809348494105 -5.512812657208304 -2.6432446037838915
O 5.411550134294535 6.830363692406889 4.874158572524182
H 4.66247996101678 6.883139127390771 4.261724097769617
H 5.570981571699033 7.751593353043389 5.128873066479068
O -9.975566629327208 6.717355184199759 16.871950131400613
H -10.48168736032536 6.859740430533274 16.057987230415293
H -9.67108511828555 7.604202178495353 17.11639923130213
O -4.7275995951529115 4.834980868229788 -6.099508741563241
H -4.613660606717641 4.850592186197945 -5.1373541019311055
H -4.028992982992176 4.238686774900786 -6.408287141076941
O 14.475112275654984 10.130476790268293 -1.7748359808713556
H 15.11759598447573 10.194675521653226 -1.0522983945213429
H 14.895541755348335 9.530758522786364 -2.4092955907388793
O 13.072799689121853 -10.098399111050691 5.989386320706873
H 13.021770165742439 -10.069131156516768 6.956602290116535
H 12.470409522936505 -9.395963507577175 5.70185848734811
O -16.515494342936364 -5.159782074103667 -13.931043764658838
H -16.87889697419499 -5.211173902110051 -13.034235666731265
H -16.512341653266148 -4.211076786816178 -14.12830065990106
O -16.403635073170836 10.449394384492198 2.109389690619918
H -15.939862059036063 10.475594864686332 1.258980681320307
H -17.145540253780453 11.061248605882 1.9903390331160775
O -8.387698371509439 -10.480364216745087 12.645651428966593
H -8.978015401337434 -11.224973013577964 12.83552217677718
H -8.979776938480713 -9.79341456330359 12.30432301164707
O -17.36809517230855 -1.095653515304348 2.309006628403532
H -16.63645551767938 -0.6115158645277532 1.8975682882179923
H -17.058309645033738 -2.0135361915623022 2.3310580232937177
O 0.8576243304328512 -12.106537073104512 -3.9813748155681234
H 0.015504235240847541 -12.516492374270575 -4.229845645283914
H 0.668934546900533 -11.680706655355513 -3.131653352257798
O 1.308770302934311 4.6610901790029295 15.28395640709578
H 1.183086607865385 4.021667782120896 14.56680233434749
H 1.1737486631632168 5.520652608028762 14.857478351739196
O 3.0974562335716245 -0.7786989515157443 12.879860156098786
H 3.9339679405354815 -0.7323841785444403 13.366758978049539
H 2.6355013480011626 -1.5310490620670434 13.279270896003244
O -2.966407629618315 17.221614178966075 -6.605772399633116
H -2.3207805814523326 17.38868645113525 -5.902764627664193
H -3.742115006671468 17.737191070719778 -6.33852629924079
O -0.7865618251465412 5.122312519627622 -18.64165192330871
H -0.4001831755382721 4.436077572858063 -18.07706314033559
H -0.958368554489732 5.856655792697554 -18.03322415491764
O 3.3489357319794677 9.371876799021514 -7.297535169060705
H 3.1922507555030313 9.325021920124183 -8.252638197728345
H 3.221758095311757 10.308726521801745 -7.08516664512597
O 5.063257268118251 -8.858706339664696 3.1932218799215932
H 4.13933263368725 -8.70842800049464 3.4437154877598584
H 5.55726285060085 -8.216330062253583 3.724515722343533
O -11.257258816758148 14.132398827577145 1.20037166222032
H -12.186147268463555 14.267307471243214 1.441064950561541
H -10.766712992814757 14.626769057939889 1.8741110882915482
O 17.320455156235166 3.1287807260045453 -1.1006282294248324
H 17.262012753232586 3.099595887700554 -0.13382934255928824
H 17.163411575868743 4.0602622752602375 -1.3165943877967143
O -1.6345992730494487 -14.231249852642156 2.840880907664019
H -2.4239475798781163 -14.46285910952544 2.328773731837815
H -1.8013539544749468 -14.615603004859512 3.714624276682212
O 2.996768399647898 11.41046983197398 -3.2098186120809395
H 2.8406617721245326 11.469112999951872 -4.164365130901683
H 2.2161605003565983 10.94544274226098 -2.873124303104564