194

C -5.0710522388059704 1.0783507462686561 0.47044029850746183
C -3.8153522388059704 0.1782507462686569 0.19534029850746193
C -4.11845223880597 -1.3219492537313435 0.5608402985074619
C -2.96945223880597 -2.3874492537313436 0.7034402985074619
C -2.52015223880597 0.7359507462686565 0.7384402985074618
C -2.20305223880597 0.7852507462686571 2.097440298507462
C -1.5755522388059702 1.205650746268656 -0.18965970149253808
C -0.9533522388059701 1.2695507462686564 2.508640298507462
H -2.91125223880597 0.4298507462686567 2.840840298507462
C -0.32655223880597006 1.6562507462686575 0.21554029850746192
H -1.7850522388059702 1.178550746268657 -1.2573597014925382
C 0.004447761194029898 1.6956507462686563 1.569740298507462
H -0.7158522388059702 1.2676507462686573 3.5705402985074617
H 0.3943477611940298 1.9193507462686572 -0.5551597014925382
C -1.76045223880597 -2.1592492537313435 -0.1734597014925381
C -0.5287522388059701 -1.936549253731343 0.464840298507462
C -1.8068522388059702 -2.121249253731343 -1.5681597014925381
C 0.6114477611940299 -1.614449253731343 -0.2582597014925381
H -0.4544522388059702 -1.954049253731343 1.5506402985074619
C -0.6479522388059701 -1.8270492537313432 -2.2998597014925384
H -2.74345223880597 -2.290549253731343 -2.092259701492538
C 0.5698477611940298 -1.5506492537313434 -1.6506597014925382
H 1.5072477611940298 -1.351949253731343 0.2991402985074618
H -0.7173522388059701 -1.7640492537313435 -3.3840597014925375
C 1.7791477611940298 -1.082849253731343 -2.4255597014925376
H 1.4739477611940297 -0.9102492537313429 -3.464259701492538
H 2.1252477611940295 -0.1337492537313434 -2.0010597014925384
C 1.3965477611940298 2.0964507462686566 1.997440298507462
H 1.51704776119403 1.8448507462686567 3.057640298507462
H 2.1256477611940294 1.5207507462686571 1.4165402985074618
C 3.94864776119403 -1.4275492537313434 -3.522959701492538
H 4.81734776119403 -2.087049253731343 -3.615159701492538
H 3.4305477611940303 -1.3641492537313429 -4.484459701492538
H 4.26984776119403 -0.441449253731343 -3.176459701492538
C 2.60904776119403 -3.4296492537313434 -2.8992597014925376
H 1.9825477611940296 -3.869549253731343 -2.119359701492538
H 2.06294776119403 -3.373349253731343 -3.845759701492538
H 3.5215477611940305 -4.019849253731343 -3.0234597014925377
C 3.7281477611940304 -2.060049253731343 -1.156659701492538
H 3.9048477611940298 -1.032549253731343 -0.8295597014925382
H 3.12924776119403 -2.623249253731343 -0.4404597014925382
H 4.68244776119403 -2.5769492537313434 -1.3005597014925383
C 3.1110477611940297 3.755250746268656 2.588740298507462
H 3.40124776119403 4.809350746268656 2.534540298507462
H 2.9823477611940303 3.461750746268656 3.634840298507462
H 3.86514776119403 3.1392507462686563 2.091540298507462
C 1.99744776119403 3.9574507462686572 0.40494029850746194
H 2.67914776119403 3.230350746268657 -0.04295970149253803
H 1.03214776119403 3.981150746268657 -0.10175970149253821
H 2.4399477611940297 4.958250746268657 0.368240298507462
C 0.7418477611940297 4.4992507462686575 2.475440298507462
H -0.18475223880597014 4.424250746268656 1.901240298507462
H 0.57844776119403 4.189650746268656 3.511940298507462
H 1.1210477611940297 5.524350746268658 2.4432402985074617
N 3.00114776119403 -2.025349253731343 -2.490159701492538
N 1.7831477611940298 3.586450746268657 1.862540298507462
C -3.55075223880597 -3.8435492537313434 0.6444402985074619
H -2.62515223880597 -2.2736492537313433 1.7424402985074618
H -4.67195223880597 -1.3478492537313436 1.5102402985074619
H -4.83415223880597 -1.6757492537313432 -0.1945597014925382
H -3.7169522388059697 0.17335074626865676 -0.900559701492538
H -3.9132522388059705 -4.043149253731343 -0.34225970149253815
H -4.35435223880597 -3.9354492537313432 1.3449402985074619
H -2.78115223880597 -4.545049253731343 0.8904402985074619
H -5.24235223880597 1.138950746268657 1.5249402985074618
H -5.92805223880597 0.6501507462686567 -0.006059701492538094
H -4.89895223880597 2.059650746268657 0.08004029850746197
C -0.36822037571960475 3.5741526536819537 -2.954478590337796
O 0.4987886323641846 2.9530176973744515 -2.3592792585552074
O -0.9135649878794738 3.2097245891052486 -4.002535317732397
O -0.834449578617452 4.663294119351545 -2.600855086418255
O -3.482327165966554 4.254020483508406 6.927423189881407
H -3.539098143474024 3.3050323743572516 7.114949139292584
H -2.844467966320857 4.311155547419608 6.2002140245106645
O 2.2182653476808585 5.820357687542082 5.688948355041192
H 2.848052244712685 6.367517483739477 6.181849946286593
H 2.6836275340088713 5.6126556943935135 4.864776126755062
O -3.1563939869712128 -0.45129575577251624 -7.29967309472222
H -3.779012978832273 -0.3114479632427425 -6.570457390833124
H -2.339894021093248 -0.027834363131965648 -6.9947629457205736
O 2.037178340647316 -9.88647068287528 0.6448307232828621
H 2.525108588560476 -9.563628925782758 -0.127609973436839
H 2.4289358399250602 -10.754642619337453 0.8230594942463902
O -1.6051207607662992 4.6299700797972125 3.7247634224897284
H -1.8058429222403878 3.7598010045921426 3.348620163411589
H -1.816767967131594 5.2485816280145405 3.009580119587649
O 6.3269661332643565 -0.07546768186767361 -7.031945368163101
H 6.237432874484746 0.33595956403784366 -6.159203267769804
H 7.278958670908184 -0.04254515329681552 -7.209676231220045
O 6.506809429337041 -2.0445487032007694 6.407593656527783
H 7.152725021998573 -1.675599904127028 7.028590587050589
H 6.83137466765405 -1.7646949427582368 5.5385129795234
O -3.24801410616044 4.00800971402384 0.7982150807381219
H -2.9657062820561335 4.331100828126901 -0.07062424925168526
H -2.4548544764303957 4.092543939443873 1.348409328980625
O 2.3636655236050426 -2.530011003691791 -8.109924440484251
H 2.117878639040262 -3.241076033306289 -7.499234103295858
H 2.600432458261078 -2.99442241227905 -8.92676310664029
O -3.759457060773039 5.112736875245463 -6.689106248422638
H -2.9039952102381132 4.990784586532392 -6.25060879294883
H -3.758019000964468 6.046075642667766 -6.949564731698956
O 0.20952715680340428 0.12199098036224898 -7.740371312448986
H -0.13828289945332295 -0.50709900835282 -8.390172287952385
H 0.27590567657820797 0.9541020523527295 -8.232455655101095
O -2.196916836731437 -1.043805095567272 6.089158575008388
H -2.7810671084058693 -0.7572418173601554 5.371093602609734
H -1.3598769023600696 -1.244321811094032 5.644052813012503
O -3.407975660044835 -7.317786808600797 -4.29485462785272
H -3.8219191236533687 -6.557592500015671 -3.8592828438370934
H -3.3528303413861344 -7.05296698772384 -5.225333752068155
O 5.257885872387105 2.5451412843741776 -1.816598509716452
H 5.338092989145912 1.6316556445200265 -2.129772839924871
H 4.46211677120859 2.875544177032594 -2.259935188136466
O 9.182725377697116 3.3672535974522937 0.5797608687091458
H 9.613080985077882 3.5955624836707027 -0.2578765591614349
H 8.243119737530607 3.305760914497598 0.35102120181615293
O -4.148739779265722 -4.156495145081788 -5.8891916114319836
H -4.220515335261417 -3.1941314260649523 -5.976779845696616
H -4.8078386605893355 -4.379959210659315 -5.214940604511325
O 2.011180193860608 5.680314548665359 -4.203338237562447
H 2.014819921492216 5.722565359512089 -3.2352633549910816
H 2.1198887371286057 6.603102913538013 -4.478303745537907
O -0.39871900751329814 -6.982807120207555 1.0618597011865814
H -1.2044267678953988 -6.915690404255287 1.5959923702865375
H -0.23364029933585506 -6.073051465125883 0.7719362415401019
O -9.31358416602131 -2.1921436787466924 -1.7183347241285185
H -10.220528860734584 -2.0800675144588086 -1.3960652545382917
H -9.306716056821688 -1.7227364872691946 -2.5660207874592946
O -10.702931596357494 1.9815080017607887 -3.4954989294750933
H -9.928148501642514 2.549304954538176 -3.3678857112702585
H -11.444112314089715 2.60394456061311 -3.5422516637911716
C 7.600969122474675 3.1661594528910046 -3.8988078585710664
O 6.996010491904247 4.137248940279717 -3.546915090697838
O 8.205927753045103 2.195069965502293 -4.250700626444295
O 0.9182165858115874 -8.389494581944572 7.501101948672227
H 0.8352622201083122 -8.464855964000726 6.538601770903228
H 1.4747473692143789 -9.143399797428673 7.747804922896182
O -5.170530189274036 21.482473773119818 -8.150106520715095
H -5.268883327941035 21.244961448119746 -7.21582502540043
H -4.212460336285686 21.471408103897467 -8.294818828621306
O 7.878723412946487 11.318544069066284 1.5251805430410785
H 8.20081500351465 11.422392668827404 0.617193851226201
H 6.914252204406583 11.31064041365331 1.4319348223420016
O 2.8836383815163074 8.33314411963856 -7.351385600639545
H 2.4860566437424985 7.8521057521876 -8.092667063869857
H 3.204662052160301 7.633086351964165 -6.7633168384144104
O 13.542953291829077 3.270620599511507 -1.7342112076382308
H 13.202242453820464 4.136132216845287 -2.005823287678375
H 13.42177287991918 2.714720873708283 -2.5185916937043027
O 4.698086496893716 -12.848457078721513 13.214076286821326
H 5.298551063654207 -12.977989181073303 13.963496793229755
H 5.15741879006071 -13.267663883899633 12.470946793902158
O -0.7101259685993782 -7.245210085220477 -1.9711815609894323
H -0.7697941425822585 -7.2141987551908 -1.0045144190406954
H -1.6286948867486704 -7.356529581185731 -2.2589332885743065
O 9.608691892611253 12.044738353992049 -6.67980909757538
H 9.347701203516374 12.836388913767209 -6.185703230059669
H 9.063178496413068 12.077827370161842 -7.479985450560919
O -4.015978233112548 -8.538431810598532 6.032259874781845
H -3.6257562853941487 -8.070632141084875 5.278696567805069
H -4.374181853399179 -7.829783564078596 6.587660427012188
O 6.627846263496711 -19.042747053611542 -0.07596079865762206
H 6.651370213820312 -18.703582313571864 -0.9833643801884602
H 7.409000949497272 -18.649433109392266 0.34124831212741125
O -3.566377327524356 -10.66987557519376 -3.9748231974409842
H -2.9122699661257947 -11.007453199723066 -4.605023375226871
H -3.3874445492194063 -11.167334424726109 -3.1627396437532975
O -12.782672640743904 -4.106129962098722 5.506710607120807
H -11.996556152766177 -3.9670018797985542 4.957500628201048
H -13.408250802847553 -4.547199722900131 4.912512514305279
O -14.703988206507073 -2.607363459816943 -13.706110733098457
H -15.468920788585136 -2.9486511363513372 -13.218906234329056
H -15.091262701101513 -2.205961114382305 -14.498484740254288
O 1.0657653071268358 -2.274382844452366 -12.803194854031421
H 0.6521773760870486 -1.5060102100907011 -13.224521182383146
H 1.7175516223877887 -2.5755379194000856 -13.453919192266735
O 17.84726322358648 6.932626863435714 13.920068666630137
H 18.076517672506913 6.607076703220737 14.803486375154362
H 18.166812674027614 6.238241138174898 13.324519711818878
O -12.534825799625045 -5.360898153645255 -1.462168928661005
H -13.013678669630488 -5.378065731408711 -2.3044115065809803
H -12.479784395178108 -4.41852530690854 -1.2433863749007759
O -2.644182828536472 -12.270185103933583 2.327706919078015
H -1.7597207740666112 -12.242232392550214 1.9328488723963355
H -3.120665467485777 -11.55147928942407 1.8856795542349327
O 1.5602486864306906 -9.458538659855476 14.955831480501347
H 1.1182206363450362 -8.738313094351023 15.430018885048606
H 0.8387000380461815 -9.913822981035176 14.496434398226732
O 20.132724422048973 13.784415690096655 -2.7871256840027474
H 20.12709842901184 13.040575305750927 -2.1661287534799403
H 20.211563979330407 13.363173425639166 -3.6562063610071274
O -15.704890092336342 12.860122037362459 -1.346038578604393
H -15.96863441266829 12.06301723424608 -0.8622718752840433
H -16.139151146004288 12.765744564327601 -2.207126363996081