194

C -5.0710522388059704 1.0783507462686561 0.47044029850746183
C -3.8153522388059704 0.1782507462686569 0.19534029850746193
C -4.11845223880597 -1.3219492537313435 0.5608402985074619
C -2.96945223880597 -2.3874492537313436 0.7034402985074619
C -2.52015223880597 0.7359507462686565 0.7384402985074618
C -2.20305223880597 0.7852507462686571 2.097440298507462
C -1.5755522388059702 1.205650746268656 -0.18965970149253808
C -0.9533522388059701 1.2695507462686564 2.508640298507462
H -2.91125223880597 0.4298507462686567 2.840840298507462
C -0.32655223880597006 1.6562507462686575 0.21554029850746192
H -1.7850522388059702 1.178550746268657 -1.2573597014925382
C 0.004447761194029898 1.6956507462686563 1.569740298507462
H -0.7158522388059702 1.2676507462686573 3.5705402985074617
H 0.3943477611940298 1.9193507462686572 -0.5551597014925382
C -1.76045223880597 -2.1592492537313435 -0.1734597014925381
C -0.5287522388059701 -1.936549253731343 0.464840298507462
C -1.8068522388059702 -2.121249253731343 -1.5681597014925381
C 0.6114477611940299 -1.614449253731343 -0.2582597014925381
H -0.4544522388059702 -1.954049253731343 1.5506402985074619
C -0.6479522388059701 -1.8270492537313432 -2.2998597014925384
H -2.74345223880597 -2.290549253731343 -2.092259701492538
C 0.5698477611940298 -1.5506492537313434 -1.6506597014925382
H 1.5072477611940298 -1.351949253731343 0.2991402985074618
H -0.7173522388059701 -1.7640492537313435 -3.3840597014925375
C 1.7791477611940298 -1.082849253731343 -2.4255597014925376
H 1.4739477611940297 -0.9102492537313429 -3.464259701492538
H 2.1252477611940295 -0.1337492537313434 -2.0010597014925384
C 1.3965477611940298 2.0964507462686566 1.997440298507462
H 1.51704776119403 1.8448507462686567 3.057640298507462
H 2.1256477611940294 1.5207507462686571 1.4165402985074618
C 3.94864776119403 -1.4275492537313434 -3.522959701492538
H 4.81734776119403 -2.087049253731343 -3.615159701492538
H 3.4305477611940303 -1.3641492537313429 -4.484459701492538
H 4.26984776119403 -0.441449253731343 -3.176459701492538
C 2.60904776119403 -3.4296492537313434 -2.8992597014925376
H 1.9825477611940296 -3.869549253731343 -2.119359701492538
H 2.06294776119403 -3.373349253731343 -3.845759701492538
H 3.5215477611940305 -4.019849253731343 -3.0234597014925377
C 3.7281477611940304 -2.060049253731343 -1.156659701492538
H 3.9048477611940298 -1.032549253731343 -0.8295597014925382
H 3.12924776119403 -2.623249253731343 -0.4404597014925382
H 4.68244776119403 -2.5769492537313434 -1.3005597014925383
C 3.1110477611940297 3.755250746268656 2.588740298507462
H 3.40124776119403 4.809350746268656 2.534540298507462
H 2.9823477611940303 3.461750746268656 3.634840298507462
H 3.86514776119403 3.1392507462686563 2.091540298507462
C 1.99744776119403 3.9574507462686572 0.40494029850746194
H 2.67914776119403 3.230350746268657 -0.04295970149253803
H 1.03214776119403 3.981150746268657 -0.10175970149253821
H 2.4399477611940297 4.958250746268657 0.368240298507462
C 0.7418477611940297 4.4992507462686575 2.475440298507462
H -0.18475223880597014 4.424250746268656 1.901240298507462
H 0.57844776119403 4.189650746268656 3.511940298507462
H 1.1210477611940297 5.524350746268658 2.4432402985074617
N 3.00114776119403 -2.025349253731343 -2.490159701492538
N 1.7831477611940298 3.586450746268657 1.862540298507462
C -3.55075223880597 -3.8435492537313434 0.6444402985074619
H -2.62515223880597 -2.2736492537313433 1.7424402985074618
H -4.67195223880597 -1.3478492537313436 1.5102402985074619
H -4.83415223880597 -1.6757492537313432 -0.1945597014925382
H -3.7169522388059697 0.17335074626865676 -0.900559701492538
H -3.9132522388059705 -4.043149253731343 -0.34225970149253815
H -4.35435223880597 -3.9354492537313432 1.3449402985074619
H -2.78115223880597 -4.545049253731343 0.8904402985074619
H -5.24235223880597 1.138950746268657 1.5249402985074618
H -5.92805223880597 0.6501507462686567 -0.006059701492538094
H -4.89895223880597 2.059650746268657 0.08004029850746197
C 2.6173946152969947 -3.165882984833733 3.1599964449087286
O 3.2812276674598424 -3.115192433905483 2.136018102607121
O 3.0782785640876016 -3.224063343267508 4.305785472496135
O 1.3819779717233975 -3.166844934603402 3.2089165413312495
O 6.331355656006145 7.041228139510972 -4.264185736397474
H 7.283882557024083 7.218665443982258 -4.277447060581955
H 6.2626763337394475 6.1118549986753905 -4.529724170689752
O -2.347542554946985 0.26812648658838434 8.464309203347934
H -1.7851815925155088 -0.28639107828995414 9.02576069285931
H -1.916877339105586 0.23561739385917413 7.596880488666315
O -6.118220952825219 6.651054204545523 2.1652240432002006
H -6.149933046381221 7.619220951840448 2.1404278851376524
H -5.799576381517696 6.450096310591778 3.05799697420445
O 0.5668013415277523 1.147492705046219 7.218396050907188
H 1.1841234493973496 0.400580896990755 7.220273022605483
H 0.7590484239350763 1.6079516753425498 6.387745378073227
O 3.643642111906396 -7.315553140862645 4.984744649448097
H 4.170962101259657 -6.850594127433246 4.317875770612657
H 3.816582989247294 -8.252529602933567 4.80831192354494
O -0.3909353154026052 -6.28001629369922 -0.2929671426761482
H -0.6263842069147927 -6.873979483440895 0.4355511519586386
H -1.2412306474078494 -5.917051319438736 -0.5831674530312159
O -8.03458347868775 2.9964120129677863 -0.8296313574019516
H -7.824697201033406 2.997009863904964 0.11636798188252229
H -7.20043971817081 3.2465335623051192 -1.2546082292994074
O -5.288053897577205 -6.831458129947235 -1.0437802826301552
H -4.7576033666021535 -6.162748476099584 -1.5024925998173473
H -4.912112208438381 -7.67333485608146 -1.3418966502803837
O -3.7884160813779753 -8.167396081836582 3.5220178383139453
H -3.257615027757439 -7.531393906342916 4.0247293173381
H -3.7077153275079984 -7.8661793052925635 2.6045660487613573
O -2.1053772815657577 4.352808203544181 4.405258834098518
H -2.207435538112441 4.129656980067386 3.467839503899134
H -2.839285951451906 4.960195709067356 4.58251691346383
O 7.668762377188655 3.267213534158093 1.7267148406944475
H 8.512734986603522 3.358877683269189 2.193914236268969
H 7.145179215930024 4.020265430000816 2.0393415505483863
O 4.959856025431007 -8.170584347830445 -1.9938600181461292
H 4.393296135414378 -7.796222614636099 -2.6851128956403727
H 4.680410922167302 -7.7110238881579996 -1.1878348557178167
O 3.092119130377386 1.85180779719223 10.068473501436221
H 2.523187008010378 1.1953571561390812 9.63910634747602
H 2.9215761316329427 2.668003628494184 9.57481228679144
O 2.095985393357763 6.010248030794957 -5.4289159742807485
H 2.099793609333214 5.936080585567563 -6.395069194251333
H 1.5284802610660058 6.776227466879011 -5.255205374089312
O 2.571515023419714 -8.029118216979139 1.6705216626585755
H 2.6206840025175477 -7.5926935523137935 0.8067605380030263
H 2.3115872707240355 -8.938307837942563 1.4589235983693287
O -6.682199253757421 -3.8767746464880934 -2.0059419126041482
H -7.145046948877089 -4.406523417301744 -2.672354403366318
H -6.563236483188134 -3.0151925661882224 -2.433125857087817
O -2.586515717396606 -4.579514294477418 -8.205311902683231
H -1.731552066196302 -4.126025920482707 -8.156806164075533
H -2.679643203160158 -4.803730681435344 -9.143403703902544
O 2.236875145135768 4.8907430465136805 5.820879674759623
H 1.7150028368105894 4.192073075921132 5.398414382817718
H 1.8624950023976858 5.710426776172109 5.464621290498059
O 3.0713330494853865 2.0015027027464916 -7.33043871220191
H 2.5263599779920343 2.792629250624203 -7.457287021178411
H 3.9432726195703056 2.353087936302569 -7.095766272479122
O 11.456158813774886 0.5929943824386193 5.701432075593697
H 10.813401951443996 -0.11619795512820108 5.852684186861809
H 11.351340628073801 1.171995658594684 6.471323376009528
C 9.081119901376256 14.627031163587072 -3.0956777410255074
O 8.996996813264246 15.065702853783947 -4.206222072228146
O 9.165242989488265 14.188359473390193 -1.9851334098228697
O -0.9211385416832054 -8.503258478378559 -4.215615872786165
H -1.05130894589313 -8.348494341121821 -5.163281997846569
H -0.006960178317782839 -8.818474544594068 -4.1533366960563995
O 15.035210896145564 6.696917268586658 12.697691806890575
H 15.068537150747405 6.662996320758064 13.665527581675027
H 15.62370272800316 5.979711447589267 12.417950643554985
O 14.452612372096429 1.4373071510190747 3.269128618689156
H 13.76686497549946 1.5546642796784642 3.943624852417191
H 15.149136356389967 0.9431647833964152 3.726992795191454
O 13.147394575276909 -2.3860442928700207 -4.018551148248099
H 13.243943388046114 -1.6947262067974123 -3.3464462550046683
H 13.117470849172669 -1.8971077612672627 -4.854617881816839
O -7.415879217633949 -1.3935278684412382 13.32964216796486
H -7.64091239399966 -1.8906793437190843 14.130371733463614
H -7.064045152152278 -2.0663284382969147 12.727550706583356
O -5.537420357363606 12.090902716848396 12.326002816304278
H -4.831392066770308 12.753317285937738 12.367213839587924
H -5.270948746608464 11.424024689063623 12.97656297572034
O 12.796618839214895 -2.0616788273328273 -11.685266143599627
H 12.206340241872901 -1.5438221801493883 -12.25303636771137
H 12.39125499487844 -1.99916497293236 -10.807351503094774
O -6.977796762852019 -3.706479478233675 -5.075266202910832
H -6.586268564361066 -4.019649946406153 -5.904481063216086
H -7.129783652033496 -2.762094328407324 -5.230181078259826
O -8.04290138935242 -14.73542695455619 11.287439975096346
H -7.714929710238349 -14.546603142874616 10.395393169855085
H -8.983271564381859 -14.928206508386351 11.155145145869573
O -2.7148417852449853 5.562335957542087 -18.04851178333456
H -3.347986108325868 5.437100466326447 -17.325731253166225
H -2.5112676479182348 4.660968397993385 -18.340155465770657
O 20.69015071474434 1.1222097000236086 -14.040637697067572
H 20.831098432962143 1.5893660457384495 -14.877815125267563
H 21.58640681866303 0.9397760116272913 -13.720630056804703
O 0.12271511882558975 14.23085696845902 5.182068675685164
H -0.2528414577855884 13.804943253382762 4.396879448827056
H 1.074342025628111 14.06487577592777 5.105790118571322
O 18.10299219719115 -1.2043313596614746 8.862164763826984
H 18.85331633302468 -1.5687312358661876 8.369017951703391
H 17.424984492297593 -1.0613166873612743 8.18480643922188
O -5.745251657390419 -2.603487084593164 -15.716386243140851
H -5.936821924728856 -2.392515127374365 -16.64253905064032
H -6.1191107195511965 -1.8572183104160136 -15.224172607990019
O 4.949847760706653 12.26223748712458 -5.127332357587302
H 4.526420253125156 12.342521994631188 -4.259443597101407
H 5.6903831526943165 12.885760578837514 -5.085044869905693
O 11.828185404674702 -4.7547540153805805 -10.59395625356774
H 10.900919041263224 -4.957382721749194 -10.39879976369093
H 12.304510521726717 -5.0560425086229 -9.805729401065777
O 6.682794729610608 9.74772123016518 13.534522903949002
H 6.663445729481527 9.654069806633533 12.57024992187157
H 5.747567578731564 9.79238145715496 13.78415780672481
O 5.9893465592738915 14.776771604704951 -3.2222559724428947
H 5.111635024278705 14.372970506639358 -3.2966501350997888
H 6.455410699244647 14.471454448390048 -4.015053295718586
O -12.510605690528022 -6.333090838972803 -12.452795556209765
H -12.339630966898557 -6.531827490661752 -11.519929679432565
H -11.848368695219978 -5.661226856212847 -12.674161531497981
O -1.501622323008618 2.4949751143723464 -4.23955434698224
H -1.2238147071727634 2.5739069331994275 -3.3145894538861573
H -0.6844170240084004 2.2747652419845075 -4.711407137255749