194

C -5.0710522388059704 1.0783507462686561 0.47044029850746183
C -3.8153522388059704 0.1782507462686569 0.19534029850746193
C -4.11845223880597 -1.3219492537313435 0.5608402985074619
C -2.96945223880597 -2.3874492537313436 0.7034402985074619
C -2.52015223880597 0.7359507462686565 0.7384402985074618
C -2.20305223880597 0.7852507462686571 2.097440298507462
C -1.5755522388059702 1.205650746268656 -0.18965970149253808
C -0.9533522388059701 1.2695507462686564 2.508640298507462
H -2.91125223880597 0.4298507462686567 2.840840298507462
C -0.32655223880597006 1.6562507462686575 0.21554029850746192
H -1.7850522388059702 1.178550746268657 -1.2573597014925382
C 0.004447761194029898 1.6956507462686563 1.569740298507462
H -0.7158522388059702 1.2676507462686573 3.5705402985074617
H 0.3943477611940298 1.9193507462686572 -0.5551597014925382
C -1.76045223880597 -2.1592492537313435 -0.1734597014925381
C -0.5287522388059701 -1.936549253731343 0.464840298507462
C -1.8068522388059702 -2.121249253731343 -1.5681597014925381
C 0.6114477611940299 -1.614449253731343 -0.2582597014925381
H -0.4544522388059702 -1.954049253731343 1.5506402985074619
C -0.6479522388059701 -1.8270492537313432 -2.2998597014925384
H -2.74345223880597 -2.290549253731343 -2.092259701492538
C 0.5698477611940298 -1.5506492537313434 -1.6506597014925382
H 1.5072477611940298 -1.351949253731343 0.2991402985074618
H -0.7173522388059701 -1.7640492537313435 -3.3840597014925375
C 1.7791477611940298 -1.082849253731343 -2.4255597014925376
H 1.4739477611940297 -0.9102492537313429 -3.464259701492538
H 2.1252477611940295 -0.1337492537313434 -2.0010597014925384
C 1.3965477611940298 2.0964507462686566 1.997440298507462
H 1.51704776119403 1.8448507462686567 3.057640298507462
H 2.1256477611940294 1.5207507462686571 1.4165402985074618
C 3.94864776119403 -1.4275492537313434 -3.522959701492538
H 4.81734776119403 -2.087049253731343 -3.615159701492538
H 3.4305477611940303 -1.3641492537313429 -4.484459701492538
H 4.26984776119403 -0.441449253731343 -3.176459701492538
C 2.60904776119403 -3.4296492537313434 -2.8992597014925376
H 1.9825477611940296 -3.869549253731343 -2.119359701492538
H 2.06294776119403 -3.373349253731343 -3.845759701492538
H 3.5215477611940305 -4.019849253731343 -3.0234597014925377
C 3.7281477611940304 -2.060049253731343 -1.156659701492538
H 3.9048477611940298 -1.032549253731343 -0.8295597014925382
H 3.12924776119403 -2.623249253731343 -0.4404597014925382
H 4.68244776119403 -2.5769492537313434 -1.3005597014925383
C 3.1110477611940297 3.755250746268656 2.588740298507462
H 3.40124776119403 4.809350746268656 2.534540298507462
H 2.9823477611940303 3.461750746268656 3.634840298507462
H 3.86514776119403 3.1392507462686563 2.091540298507462
C 1.99744776119403 3.9574507462686572 0.40494029850746194
H 2.67914776119403 3.230350746268657 -0.04295970149253803
H 1.03214776119403 3.981150746268657 -0.10175970149253821
H 2.4399477611940297 4.958250746268657 0.368240298507462
C 0.7418477611940297 4.4992507462686575 2.475440298507462
H -0.18475223880597014 4.424250746268656 1.901240298507462
H 0.57844776119403 4.189650746268656 3.511940298507462
H 1.1210477611940297 5.524350746268658 2.4432402985074617
N 3.00114776119403 -2.025349253731343 -2.490159701492538
N 1.7831477611940298 3.586450746268657 1.862540298507462
C -3.55075223880597 -3.8435492537313434 0.6444402985074619
H -2.62515223880597 -2.2736492537313433 1.7424402985074618
H -4.67195223880597 -1.3478492537313436 1.5102402985074619
H -4.83415223880597 -1.6757492537313432 -0.1945597014925382
H -3.7169522388059697 0.17335074626865676 -0.900559701492538
H -3.9132522388059705 -4.043149253731343 -0.34225970149253815
H -4.35435223880597 -3.9354492537313432 1.3449402985074619
H -2.78115223880597 -4.545049253731343 0.8904402985074619
H -5.24235223880597 1.138950746268657 1.5249402985074618
H -5.92805223880597 0.6501507462686567 -0.006059701492538094
H -4.89895223880597 2.059650746268657 0.08004029850746197
C -1.124029198079454 0.6642569070872921 -3.223901875202304
O -2.1858751056724857 0.07413033454325446 -3.35043011515433
O -0.14513207382319615 0.24315664328562292 -2.596951755935234
O -0.8640329303083591 1.7738923818548111 -3.7032341589914974
O -8.564267551568012 -1.5888959067984878 -6.225918078417248
H -8.434359014876502 -1.7723194322164098 -7.168492711705208
H -9.484041032871797 -1.8460299429358522 -6.062025507353086
O 2.971473716563942 8.070073623337525 -7.5467869862385415
H 3.6572456911825353 7.90785528038359 -8.211895522446728
H 3.383997126385069 8.696420247559379 -6.933210351273162
O 9.031132920220879 7.906015236049408 -4.967851924923732
H 8.097026566507585 8.06398505030451 -5.1714648288288245
H 9.128076264357055 8.218954640410807 -4.055912858140416
O -1.0992058467174461 4.048825207080952 -6.838488558569979
H -0.860829443884129 4.187034799904767 -7.7674891807031
H -0.831652278826935 4.872176489998335 -6.403207387914325
O 3.649843198350629 -5.668869668400914 1.785054469789517
H 4.462947904950464 -5.453338378378967 2.2660683531927646
H 3.847677618150427 -5.422895859795773 0.8689101732276936
O 7.95066113794941 3.7465068937438533 1.6002223953590216
H 7.922752809110497 2.8483226448087695 1.2376571777135061
H 7.80213144876649 4.314746060608174 0.8295051158248414
O -0.7861245620851429 7.518516762707896 7.865801845864874
H -0.15494095264959162 7.382610293766814 7.143234174445874
H -0.7229219783553068 6.704691740788775 8.387966773266376
O -2.430370392029354 -0.2232257398428048 7.808708056389983
H -2.3679336126850865 -0.25649029512747723 8.775125396283483
H -1.50776755027147 -0.17761010897978802 7.5159877890676725
O -3.0386437826078034 0.5764729027165648 -6.063851452514614
H -3.16601486577486 0.21141699558552762 -5.175325623547562
H -2.1296764838214663 0.3288010705460388 -6.290565055076004
O 8.370349949417527 2.4272742517903976 6.668752975446447
H 8.406735920833652 2.333240022305244 7.6324961889993315
H 8.547737740195043 1.5333573646312564 6.339499099486298
O -6.545888077033095 6.918358031186277 -5.595970239251405
H -5.600259275521169 6.74338737500569 -5.477063569434879
H -6.803678369339689 7.375088883116909 -4.781167785654708
O 5.21933720753327 -6.760133958027771 -1.7140593533742305
H 4.533170700828387 -6.4346934187956455 -2.3159159288145252
H 5.446683632900362 -7.632917869472433 -2.068352722062047
O 5.772088665207514 1.8616082293824407 -2.7331603303239067
H 5.343918836377461 2.7284258285929774 -2.6678517988863852
H 5.949232291813347 1.7588171690424002 -3.680269657575572
O 7.799764348741199 -1.927746262251695 1.98485984453769
H 8.556569947826905 -2.3620160013815084 2.4063126126726857
H 7.812848214182646 -2.2644094643476214 1.0763178008657264
O 1.5962092496603626 -8.398698321045782 3.7992298377442157
H 2.3635442725458065 -7.844582727617824 3.591575729493553
H 1.2807544527903143 -8.695943978242688 2.932572330588559
O 5.521538020084335 -0.2907466595878363 1.581811963966051
H 5.222484766151032 -0.06570711980916188 2.4756193893928637
H 5.22818099017213 -1.206260937649303 1.460415077817023
O 5.351869857172613 7.120434231933991 -6.794629511403417
H 5.663277170099239 7.999560212438662 -6.531702995514431
H 4.873862529907498 6.798758135429069 -6.015530398120507
O 6.287580709563722 0.01725085140560445 -10.25407346921988
H 6.298118380793122 -0.5815715024650121 -9.492320160799158
H 7.204667853352688 0.32204057240751505 -10.324899601181
O -1.927166099822274 -5.225080871461132 7.348625644320476
H -1.9925942727765182 -5.263392596056811 6.382593179626679
H -2.6709250774544 -5.765262794103245 7.655200297451299
O -2.4294008055024365 5.357397990416484 -0.11338716189814241
H -2.9905935283747467 5.076891699425059 -0.8518628252814371
H -3.0550719714327803 5.72073570235285 0.5311927350178334
C -1.5037880178059044 -9.441668159614467 8.282120740560702
O -0.5909822859980964 -8.833589617608766 8.76154168298086
O -2.416593749613712 -10.049746701620169 7.802699798140544
O 0.7533247443404094 -5.493344722721272 -0.01941829616436741
H 0.7508751411987487 -5.236887594334031 0.9150286513098165
H 0.33579371189802076 -4.743373395033032 -0.4690545812806073
O 14.653218191269602 -1.3869401146477576 13.029178225841322
H 14.672649283503494 -1.2578388502360645 12.069010192067076
H 13.901963831809285 -0.8497348927652562 13.322417686477234
O 4.369411645161006 -7.061800550627648 -14.639368144661534
H 4.4575737008602925 -8.002122107999336 -14.422595965687938
H 3.5296216040352055 -7.0101493155716845 -15.120041402751808
O -6.814116595117686 -6.9612631444039605 -13.180216055859985
H -6.305775241542082 -6.526398003463946 -12.479182009368555
H -7.206901065003801 -6.226365150177916 -13.674793898670215
O -10.186167446067909 5.378788590676918 -0.2614782478804478
H -9.58325176196329 5.071595909451645 0.43213020893239085
H -9.906227009957815 6.291479437317582 -0.42758277818844337
O -3.6200387706067287 1.2081937265265275 19.78716028224188
H -3.7597616119439152 0.5472398796843834 19.092476975365113
H -4.239774552668188 1.918430095234703 19.562541037080432
O 6.833186573436167 -13.409347746782275 -7.499470586322828
H 6.893375934826403 -14.360936695261236 -7.326777011433245
H 6.574206700420893 -13.03235597129508 -6.645205656170592
O -13.193668657396056 3.0021884886415893 -11.523545886032244
H -12.941472461603977 2.1608010424349144 -11.114361818534727
H -12.479044270232059 3.6072318207438463 -11.274153633046954
O -10.127911790166758 -7.221133886519147 -11.070515178325888
H -10.164839806995436 -7.097301026500702 -12.030863605331811
H -9.20988278436931 -7.482350743940312 -10.903331320811
O 0.44759491601576185 -14.366935442868781 11.109061898059114
H 1.1057099436997957 -15.067801241434422 11.230054045066233
H 0.4263134391980575 -13.915355211994083 11.966140854823081
O -6.594919545943822 -14.774938447219268 -6.360930871084918
H -5.987063143914758 -15.264643707111748 -6.935096970611805
H -6.304173885449334 -13.854267075289032 -6.443351318255022
O 8.25447869022531 -5.946797009101319 -1.968254311601434
H 7.897983408840997 -5.263490009658989 -1.3809128302093576
H 8.096267182476684 -5.596631812470757 -2.8578134148568535
O -9.681845789497046 4.679461276504279 -8.221627723271897
H -9.614636574251545 4.622707347812395 -9.186629935634192
H -10.180627100867609 5.49615988261769 -8.069369605262136
O 13.333622010973274 -6.36107512728511 4.2124678566727995
H 12.539149160594624 -6.548820203442411 4.73451386354376
H 13.20033298505541 -6.8632912022306 3.39455894124504
O 13.375401398760843 -2.0983895283452965 -13.30207641533212
H 13.298895928801912 -1.4872441837854864 -12.554001794863526
H 14.331252379145887 -2.1979454057496275 -13.426171035969784
O 2.3267836490764986 12.126594294343686 -12.833545372217266
H 2.5261236917678964 11.914667641207014 -13.757838614630128
H 1.4445562105452119 12.525732630539748 -12.869949761803717
O 5.910932555248485 -3.851779685583067 10.019757535207344
H 6.777140215563591 -3.487789787746876 10.256744877452938
H 5.7751348411956185 -3.5572133162592254 9.106657552061256
O 4.823453525749397 16.827943055767832 -7.894508222814261
H 5.027388192439222 17.187954287006058 -8.770733035293597
H 3.9819621400240353 16.364656908254428 -8.021866526713936
O -4.951992054018962 0.812282063163146 -14.742711782327373
H -5.413710286158869 -0.03160233653688227 -14.625909595051091
H -4.12135863685391 0.5664680122416259 -15.176976129192573
O -3.596857179937489 14.097285495727377 -7.406670747535474
H -3.554576344170149 14.082502996688714 -6.438703203891067
H -3.081269625581745 14.88033703161718 -7.651541550682937