194

C -5.0710522388059704 1.0783507462686561 0.47044029850746183
C -3.8153522388059704 0.1782507462686569 0.19534029850746193
C -4.11845223880597 -1.3219492537313435 0.5608402985074619
C -2.96945223880597 -2.3874492537313436 0.7034402985074619
C -2.52015223880597 0.7359507462686565 0.7384402985074618
C -2.20305223880597 0.7852507462686571 2.097440298507462
C -1.5755522388059702 1.205650746268656 -0.18965970149253808
C -0.9533522388059701 1.2695507462686564 2.508640298507462
H -2.91125223880597 0.4298507462686567 2.840840298507462
C -0.32655223880597006 1.6562507462686575 0.21554029850746192
H -1.7850522388059702 1.178550746268657 -1.2573597014925382
C 0.004447761194029898 1.6956507462686563 1.569740298507462
H -0.7158522388059702 1.2676507462686573 3.5705402985074617
H 0.3943477611940298 1.9193507462686572 -0.5551597014925382
C -1.76045223880597 -2.1592492537313435 -0.1734597014925381
C -0.5287522388059701 -1.936549253731343 0.464840298507462
C -1.8068522388059702 -2.121249253731343 -1.5681597014925381
C 0.6114477611940299 -1.614449253731343 -0.2582597014925381
H -0.4544522388059702 -1.954049253731343 1.5506402985074619
C -0.6479522388059701 -1.8270492537313432 -2.2998597014925384
H -2.74345223880597 -2.290549253731343 -2.092259701492538
C 0.5698477611940298 -1.5506492537313434 -1.6506597014925382
H 1.5072477611940298 -1.351949253731343 0.2991402985074618
H -0.7173522388059701 -1.7640492537313435 -3.3840597014925375
C 1.7791477611940298 -1.082849253731343 -2.4255597014925376
H 1.4739477611940297 -0.9102492537313429 -3.464259701492538
H 2.1252477611940295 -0.1337492537313434 -2.0010597014925384
C 1.3965477611940298 2.0964507462686566 1.997440298507462
H 1.51704776119403 1.8448507462686567 3.057640298507462
H 2.1256477611940294 1.5207507462686571 1.4165402985074618
C 3.94864776119403 -1.4275492537313434 -3.522959701492538
H 4.81734776119403 -2.087049253731343 -3.615159701492538
H 3.4305477611940303 -1.3641492537313429 -4.484459701492538
H 4.26984776119403 -0.441449253731343 -3.176459701492538
C 2.60904776119403 -3.4296492537313434 -2.8992597014925376
H 1.9825477611940296 -3.869549253731343 -2.119359701492538
H 2.06294776119403 -3.373349253731343 -3.845759701492538
H 3.5215477611940305 -4.019849253731343 -3.0234597014925377
C 3.7281477611940304 -2.060049253731343 -1.156659701492538
H 3.9048477611940298 -1.032549253731343 -0.8295597014925382
H 3.12924776119403 -2.623249253731343 -0.4404597014925382
H 4.68244776119403 -2.5769492537313434 -1.3005597014925383
C 3.1110477611940297 3.755250746268656 2.588740298507462
H 3.40124776119403 4.809350746268656 2.534540298507462
H 2.9823477611940303 3.461750746268656 3.634840298507462
H 3.86514776119403 3.1392507462686563 2.091540298507462
C 1.99744776119403 3.9574507462686572 0.40494029850746194
H 2.67914776119403 3.230350746268657 -0.04295970149253803
H 1.03214776119403 3.981150746268657 -0.10175970149253821
H 2.4399477611940297 4.958250746268657 0.368240298507462
C 0.7418477611940297 4.4992507462686575 2.475440298507462
H -0.18475223880597014 4.424250746268656 1.901240298507462
H 0.57844776119403 4.189650746268656 3.511940298507462
H 1.1210477611940297 5.524350746268658 2.4432402985074617
N 3.00114776119403 -2.025349253731343 -2.490159701492538
N 1.7831477611940298 3.586450746268657 1.862540298507462
C -3.55075223880597 -3.8435492537313434 0.6444402985074619
H -2.62515223880597 -2.2736492537313433 1.7424402985074618
H -4.67195223880597 -1.3478492537313436 1.5102402985074619
H -4.83415223880597 -1.6757492537313432 -0.1945597014925382
H -3.7169522388059697 0.17335074626865676 -0.900559701492538
H -3.9132522388059705 -4.043149253731343 -0.34225970149253815
H -4.35435223880597 -3.9354492537313432 1.3449402985074619
H -2.78115223880597 -4.545049253731343 0.8904402985074619
H -5.24235223880597 1.138950746268657 1.5249402985074618
H -5.92805223880597 0.6501507462686567 -0.006059701492538094
H -4.89895223880597 2.059650746268657 0.08004029850746197
C 3.2792578034832056 -0.3687723356908741 2.855393563137112
O 3.8978583086256124 0.6080119231083055 2.461691359181259
O 3.7803100842056594 -1.4632491590860133 3.137702895490319
O 2.05644727107049 -0.4139417298626835 3.032431728657098
O 7.068181289487838 0.5726968365522036 -7.710504290186314
H 6.626982755738702 1.2385323933895014 -7.161893114608586
H 7.92405558900742 0.4409167944964346 -7.275676567705737
O 0.7350091144720445 -3.4762427401853504 10.351560405542545
H 0.11010147216114907 -3.709453594631492 11.054461887152833
H 1.0713517145737748 -2.6069178465573497 10.616343012553417
O 7.01431517529238 1.2537333288479233 2.979441812114595
H 6.599794815352446 1.568663947320363 2.1621542656269264
H 7.770747117327002 0.7318431963844101 2.6721905289489305
O 4.60380988842264 -11.346147519836801 3.136934137977325
H 5.524966677839307 -11.589565941496714 3.3135268847371373
H 4.4915172298653605 -11.525380701444183 2.1912979660036456
O 5.0598121187295675 -2.3112380647082365 9.065255911889391
H 5.621324131822107 -2.1196174267882606 8.299127236550904
H 4.1579973739785 -2.2438631999128846 8.717185893009034
O -7.681113077740377 -0.46045005043910037 -3.150479189159561
H -7.660380529062195 -0.3942220685277157 -4.116994255124522
H -8.048292425107613 -1.3416144731014752 -2.984074467468575
O 5.955153764663014 -0.9374409242173367 5.820026314614072
H 5.3933178682736465 -0.7663403356579124 6.590761269720545
H 6.695158642193975 -0.3213188001495122 5.928415676474641
O 2.600271464481264 0.9056726794143988 6.0433073278416485
H 3.408069476004278 1.4183522308199268 5.889718893869256
H 2.828834669319664 0.013185048426427315 5.742996431889675
O 1.1333038185007738 4.284375814574417 -4.214281807272245
H 1.7066513245095887 4.198998263608291 -3.437782825917794
H 0.8651402391169676 5.215494151536024 -4.205982315365255
O -3.449087659650846 -4.648344684594399 4.789284305533034
H -3.686951648046228 -5.465855304683806 4.326613292862393
H -3.4946107662392674 -3.9680098923371476 4.100782917363903
O -3.262906620745799 -8.139731317137926 -4.681137249900756
H -2.783056612257178 -8.886008901897501 -5.070728179901556
H -2.7963930006939575 -7.360044436388918 -5.0179092122046365
O -2.868589991458152 5.453307290842709 4.506406092352565
H -3.0192354997305966 4.840423955606269 5.241693318630022
H -2.2886450436360737 4.960862347251964 3.9063029517779193
O 5.075530051669038 -9.940535096487313 -4.35604348464134
H 5.378567000405177 -10.748190698514497 -3.9146497906279385
H 5.894156182812457 -9.463277184634393 -4.558622079964113
O 1.2681977172993641 -2.3110036058601136 4.540351862302747
H 1.4800724670256846 -2.287218250815762 3.595094910879577
H 1.9625813900230633 -1.7730295758901011 4.949469452284613
O -1.00064810099395 -10.150540033169827 0.8030225586111035
H -0.10626930634421106 -9.986827107279925 1.1380628643616917
H -1.5782493137304068 -9.843068289012786 1.517725230979412
O 6.402409760831627 7.920814255901364 2.2055767789617806
H 5.542154596779412 7.897980220467602 1.7601477538104016
H 6.498457594903922 8.84460036093526 2.4819026554488066
O -1.168925437170068 4.519359709252498 10.979485990884685
H -1.671924321210624 4.110867533328787 11.699967511649145
H -1.7609123731979048 5.208284747461098 10.64200161554021
O 2.6370777164867123 8.331004648996839 -5.217719885695291
H 2.195228534914897 9.096780949461742 -5.614359918080582
H 2.0227231427887844 7.598502434291005 -5.375741743447579
O 0.6712686838128272 -2.7743129188016833 7.191991217042286
H 0.8404134776189678 -2.1942019375495194 7.949505999115171
H 0.37669499661249306 -3.60505554419753 7.594551743497147
O -4.1844882661011304 3.2495796186742645 -7.094400261431775
H -4.127976303102718 3.1561677388904377 -8.057233567696843
H -3.575494895002983 2.5752600848506315 -6.757677549749904
C -8.251666883278293 -18.524800204944654 -10.896869780551238
O -8.812642320687926 -19.43670939545686 -10.361569449725224
O -7.690691445868659 -17.61289101443245 -11.432170111377253
O -5.9365917686197935 15.495402854083267 15.31877214549962
H -6.239744808483556 15.380661881823903 14.4055908378688
H -6.398367038505635 16.292140566676558 15.620325725736146
O 4.039202200070877 -17.94194682825223 -0.9808777102286346
H 3.509411862363944 -18.697107066102788 -0.6841917312173802
H 4.832296197075029 -18.347760080606395 -1.3620331384068418
O 1.9829240516075104 -8.796300080240426 0.7867836978673601
H 2.371936374059573 -9.428812634638478 1.4093305944215913
H 1.9518654031799727 -9.281704088500991 -0.051297594981031924
O -6.450748965092053 4.226964697064556 8.57469136796061
H -6.329678503003891 5.148841584166198 8.847550865023747
H -6.8964509134918925 4.293383408324955 7.7168450692059345
O -0.6498179052602762 8.431589404369738 -11.281783618859544
H 0.22864706202279628 8.68953702006073 -11.599163022280251
H -0.5790765438955514 7.474283041787117 -11.14941242769208
O 14.503196130442959 -2.5645315664045945 4.294744617568068
H 14.692007451611826 -1.681325436657871 4.645835167535285
H 13.574434810498389 -2.514724935167905 4.022929139054296
O -13.032260964151387 4.17958830516536 -8.1906312686035
H -12.394972667311432 3.52625410369656 -7.865077271850344
H -13.828737982729718 4.011810261306877 -7.664858664547725
O 9.405385452005833 2.325148361668454 10.169968260131
H 9.817401628111682 1.6618414953518075 10.74375744495789
H 9.518566205090831 1.9652827613691164 9.277416406650035
O 12.259694043498186 2.7806548512872338 -13.544335791803853
H 11.905107187423457 3.461201528670614 -12.952650285557944
H 12.376665732907199 2.0090079654757353 -12.970018238707818
O 1.8623296936759992 15.609092495299423 9.492263748366405
H 1.48724968084273 15.306489533080123 10.332926456073306
H 2.18797893499595 16.500367218078953 9.68858971318516
O 5.392691131878285 5.859248930420311 -11.313088399909821
H 5.390095614334706 6.168502770224891 -12.231414421949275
H 4.935958825306603 5.005540144111209 -11.35231661185417
O -13.559701990485893 7.638833610498989 3.3964669609711127
H -13.867739952854759 6.886459177227998 3.9237360410429414
H -13.640649704380383 8.394613121125051 3.9974717390162513
O -8.88936973936476 3.3343514987066993 -6.152491950685478
H -9.284124249363593 2.9701304614110486 -5.3459690001584255
H -7.939914441934076 3.3544785076471717 -5.959900450374793
O 0.717391378862984 5.5247613142896785 13.103077507961212
H 1.1075722467536404 6.123339261361949 13.757623677845997
H 1.4836356599139364 5.140377606076928 12.651324466004302
O -4.791200552040508 -3.365747869365047 18.54957025647681
H -4.5531989390468945 -4.038380722592802 17.893912088014666
H -5.711279620763312 -3.147667343755358 18.337774751453736
O 6.032333721605565 15.527847182374328 7.6163689884783246
H 5.945165416040136 16.167742612522588 8.338797449905634
H 5.80516623070576 14.67970483496313 8.026260966816656
O 6.947158300073654 -8.896526108383414 12.296988231807598
H 6.7587021662337206 -8.235563384576247 11.613921675566173
H 7.304098199596566 -8.377181906363422 13.033084320818258
O -1.190489170571281 19.346734470157934 -2.7023444807425534
H -1.2834764501597093 18.48739333438214 -3.1403553654227325
H -0.7611731142162577 19.903915556165 -3.368826967723087
O 0.6360983283151503 -14.109757020939536 -6.5076893398046085
H 0.7448378132018914 -13.828291153735659 -7.428515081693776
H 1.1046611424887494 -13.43129537049098 -5.9986700647822
O -7.7709904159195204 -15.954374254941536 -14.157484530767581
H -8.101120237940744 -15.824944193646203 -15.05927692192273
H -6.809665216294517 -16.009788552008757 -14.265859161315955