194

C -5.0710522388059704 1.0783507462686561 0.47044029850746183
C -3.8153522388059704 0.1782507462686569 0.19534029850746193
C -4.11845223880597 -1.3219492537313435 0.5608402985074619
C -2.96945223880597 -2.3874492537313436 0.7034402985074619
C -2.52015223880597 0.7359507462686565 0.7384402985074618
C -2.20305223880597 0.7852507462686571 2.097440298507462
C -1.5755522388059702 1.205650746268656 -0.18965970149253808
C -0.9533522388059701 1.2695507462686564 2.508640298507462
H -2.91125223880597 0.4298507462686567 2.840840298507462
C -0.32655223880597006 1.6562507462686575 0.21554029850746192
H -1.7850522388059702 1.178550746268657 -1.2573597014925382
C 0.004447761194029898 1.6956507462686563 1.569740298507462
H -0.7158522388059702 1.2676507462686573 3.5705402985074617
H 0.3943477611940298 1.9193507462686572 -0.5551597014925382
C -1.76045223880597 -2.1592492537313435 -0.1734597014925381
C -0.5287522388059701 -1.936549253731343 0.464840298507462
C -1.8068522388059702 -2.121249253731343 -1.5681597014925381
C 0.6114477611940299 -1.614449253731343 -0.2582597014925381
H -0.4544522388059702 -1.954049253731343 1.5506402985074619
C -0.6479522388059701 -1.8270492537313432 -2.2998597014925384
H -2.74345223880597 -2.290549253731343 -2.092259701492538
C 0.5698477611940298 -1.5506492537313434 -1.6506597014925382
H 1.5072477611940298 -1.351949253731343 0.2991402985074618
H -0.7173522388059701 -1.7640492537313435 -3.3840597014925375
C 1.7791477611940298 -1.082849253731343 -2.4255597014925376
H 1.4739477611940297 -0.9102492537313429 -3.464259701492538
H 2.1252477611940295 -0.1337492537313434 -2.0010597014925384
C 1.3965477611940298 2.0964507462686566 1.997440298507462
H 1.51704776119403 1.8448507462686567 3.057640298507462
H 2.1256477611940294 1.5207507462686571 1.4165402985074618
C 3.94864776119403 -1.4275492537313434 -3.522959701492538
H 4.81734776119403 -2.087049253731343 -3.615159701492538
H 3.4305477611940303 -1.3641492537313429 -4.484459701492538
H 4.26984776119403 -0.441449253731343 -3.176459701492538
C 2.60904776119403 -3.4296492537313434 -2.8992597014925376
H 1.9825477611940296 -3.869549253731343 -2.119359701492538
H 2.06294776119403 -3.373349253731343 -3.845759701492538
H 3.5215477611940305 -4.019849253731343 -3.0234597014925377
C 3.7281477611940304 -2.060049253731343 -1.156659701492538
H 3.9048477611940298 -1.032549253731343 -0.8295597014925382
H 3.12924776119403 -2.623249253731343 -0.4404597014925382
H 4.68244776119403 -2.5769492537313434 -1.3005597014925383
C 3.1110477611940297 3.755250746268656 2.588740298507462
H 3.40124776119403 4.809350746268656 2.534540298507462
H 2.9823477611940303 3.461750746268656 3.634840298507462
H 3.86514776119403 3.1392507462686563 2.091540298507462
C 1.99744776119403 3.9574507462686572 0.40494029850746194
H 2.67914776119403 3.230350746268657 -0.04295970149253803
H 1.03214776119403 3.981150746268657 -0.10175970149253821
H 2.4399477611940297 4.958250746268657 0.368240298507462
C 0.7418477611940297 4.4992507462686575 2.475440298507462
H -0.18475223880597014 4.424250746268656 1.901240298507462
H 0.57844776119403 4.189650746268656 3.511940298507462
H 1.1210477611940297 5.524350746268658 2.4432402985074617
N 3.00114776119403 -2.025349253731343 -2.490159701492538
N 1.7831477611940298 3.586450746268657 1.862540298507462
C -3.55075223880597 -3.8435492537313434 0.6444402985074619
H -2.62515223880597 -2.2736492537313433 1.7424402985074618
H -4.67195223880597 -1.3478492537313436 1.5102402985074619
H -4.83415223880597 -1.6757492537313432 -0.1945597014925382
H -3.7169522388059697 0.17335074626865676 -0.900559701492538
H -3.9132522388059705 -4.043149253731343 -0.34225970149253815
H -4.35435223880597 -3.9354492537313432 1.3449402985074619
H -2.78115223880597 -4.545049253731343 0.8904402985074619
H -5.24235223880597 1.138950746268657 1.5249402985074618
H -5.92805223880597 0.6501507462686567 -0.006059701492538094
H -4.89895223880597 2.059650746268657 0.08004029850746197
C -1.0414857236581792 0.2965085410937012 -3.576279819890487
O -2.1419810731541133 -0.03896026623253834 -3.1662235266221956
O -0.21892724118678852 0.9673296384485509 -2.942222990924819
O -0.5800544408426223 0.017085759430994107 -4.688778118642923
O -6.0150530211734194 -7.443487886736944 1.5051943559279468
H -6.8587603652101885 -7.641359598176602 1.0716369083729969
H -5.64692830156621 -8.316084361688713 1.7101858850599057
O 1.6387957229770764 -6.94750948872775 -4.430886137749539
H 1.4658349683464225 -7.396617433647238 -5.271929530249469
H 0.9175974059542065 -7.243005851747111 -3.855111154561047
O -0.07211349792762833 -6.12811749654079 -9.94750959161731
H -0.45178781148199043 -6.293755190510492 -9.071507921034756
H -0.7462840875429309 -6.457187581466884 -10.560835638353048
O -4.3686922863015525 0.8606363967005353 4.227489899486622
H -4.879591468292666 1.647224829750416 3.9841218248898427
H -5.040450750097142 0.17211032792970649 4.344256175619657
O -7.06444824146444 4.075158255945854 -2.3864899712012426
H -7.506181980609327 4.706521821343876 -1.7989368171045457
H -6.271205915464762 3.813714609061048 -1.8951898836313417
O -3.684310320497689 -10.82779066043838 2.4307389190618633
H -2.9562215936873617 -10.293402843428044 2.7818568818929386
H -3.8694528235667276 -11.464327795198917 3.1374953650375437
O 6.083898127958005 9.795786232149899 -1.0139956340944913
H 6.640406413236166 10.284575678563359 -0.38921506270035283
H 5.201364154038554 10.175557473392196 -0.8880212974094777
O -4.960338099009679 7.173730768994516 1.4571264921546216
H -4.846951022600004 6.574311681882694 2.209992672700207
H -5.785240261840264 7.642704435773819 1.6534987557892737
O -7.853026284356169 -5.3173770621533505 1.7759197164871192
H -7.875712709835245 -5.798041829364566 2.616998823682614
H -7.006246738444673 -4.846805515351709 1.7980277301163765
O 4.689802505163293 -6.197621740307687 -5.561601871458204
H 4.161544813231979 -6.781069367867669 -6.1268452117197505
H 4.140602976298986 -5.405139420927953 -5.465094901421116
O -4.390627588426285 7.392378320139587 -3.531991454546758
H -4.568030421422707 6.5561796113196635 -3.075628319409028
H -4.274997381095406 8.031525055617614 -2.812906584743202
O 3.7642617458585153 -4.021324908607732 3.9692002936849056
H 2.809037196107772 -4.1581909175477225 3.880989681793084
H 3.910033166562605 -3.1398380811713107 3.5941088244910784
O 0.9315200010902056 -7.696290578578207 6.6346182985636055
H 0.21558816331894093 -7.352989849766571 6.079142313337547
H 0.8031960612536491 -7.249155656038419 7.4846566928789215
O 2.7990281732510085 -0.7064447861260406 6.987295270666629
H 3.4998940895771975 -0.3484634011999739 7.552630261869782
H 3.117152065489565 -1.5909199204616868 6.751789707613589
O -0.09458983243147945 -1.7348031025730735 4.695438471773913
H 0.7703267649893526 -1.3198690851473152 4.832246357470945
H -0.708573847118442 -1.1603977215570964 5.177147961268119
O -7.003709186482318 -3.16348347012892 5.512373485960051
H -6.05943710721651 -3.341706368163733 5.637089947724741
H -7.1155024398428175 -3.1567541890589066 4.549866899188119
O -5.304089944671028 0.5781551939004921 -4.026351273868607
H -5.144488918414886 0.9716413424889991 -4.897364201549345
H -5.877297569668832 -0.18033970122058385 -4.213649050202564
O -7.964861395200779 -4.427606649802217 -6.534886415221404
H -8.028052501591624 -3.830811773150834 -5.774090702709983
H -7.65984460753819 -3.856390894873827 -7.255746502107607
O 5.393958201139067 2.047252601354847 -0.23839014364730615
H 5.626958274905868 2.016819248599778 0.7016907749787191
H 5.881132554942875 2.81401897691782 -0.575573207578257
O 6.075671961588488 3.2114658684436437 8.506423965116019
H 5.295829080932326 2.668979746838893 8.31531863746622
H 5.785252603636606 4.115351721249688 8.312493807781204
C 11.54065051663142 -4.951149740045947 10.06476536758895
O 12.501467631142804 -5.653238259452255 10.194072910601239
O 10.579833402120034 -4.249061220639638 9.935457824576664
O 5.344104821123916 -7.966644496997371 6.077105994573352
H 6.154990653587432 -7.9214841539599625 6.605681501976689
H 4.991805611298029 -7.0646078752525865 6.111415528048891
O 1.9466752918493762 3.401124078605098 -14.2324578034393
H 1.5112909659748237 3.94772787347394 -14.903749198526217
H 2.734105455217526 3.911157296206933 -13.990008222988584
O -10.724371477745002 -6.342669123520953 -13.453396954431543
H -11.015062840950646 -5.823149821997157 -14.2179658418458
H -10.745512400914878 -7.258007433372848 -13.770683550721087
O 3.0781124056689073 -10.457007688041841 -13.025924370792733
H 3.6825468694488914 -11.214379902081921 -13.022227710809354
H 2.201420800450069 -10.857690592832203 -13.125055513465329
O -11.100267741046729 6.684350387776334 10.374003443889105
H -10.356025696774763 6.28973196278302 9.895101120764975
H -11.697398713436483 6.984446972150197 9.672335013531857
O 2.193601875636058 -3.283759014282592 -8.936021618369566
H 2.0141294949703745 -3.486591888453378 -9.866406402549645
H 2.327081620324889 -4.152731861348607 -8.52855224145912
O 3.3904039741808414 -15.229031572676526 -0.04339431903801394
H 2.4585024013538503 -15.452124076966028 -0.18746565550859717
H 3.6525795574819004 -15.78925764414418 0.7025096001557838
O -11.231970998452855 -10.703405938954077 3.6242654813337847
H -11.581708464933387 -11.195213966032533 4.382405261282694
H -10.364705904841216 -10.393902674940836 3.925962235157791
O 1.6047858797285908 8.53019078184907 0.8729675378416588
H 2.401277717415807 8.190488731608077 1.3079050350291372
H 1.8259929167683562 8.508910334759069 -0.070206111936439
O -17.527737554448372 -0.2806972114401596 -1.998877213466182
H -17.472394308855375 -0.281232949718607 -1.0314557980262862
H -16.675037919340234 -0.6433779073654033 -2.2822991416750322
O 9.02326619103757 -13.328446215408963 1.5605149402061533
H 9.339236500051811 -14.069504577722082 1.0220331630147186
H 9.157139043506103 -13.627865840391934 2.4723196845714117
O -3.704875919143477 7.4634122945909445 21.93109108460735
H -3.2106372406293393 7.123614650788906 22.692164699198724
H -4.204304416225235 8.211535878454566 22.291430124776056
O 5.62837353155007 -6.441315606908259 8.895635416213452
H 5.476910963393509 -6.220105917897826 9.826813552144127
H 5.731356129442142 -7.404825970234258 8.897711131704678
O 0.5591290517918686 -12.633952076079543 4.0058150805313195
H 0.919629899412127 -13.312485838622084 4.596237326771195
H 1.2430623994436854 -11.947637133427968 3.9928181669384344
O 0.20420508923506286 -0.981949422564317 14.352599547226067
H 0.8698794008996051 -1.1922313528589505 15.024631226153112
H 0.6428033303251155 -1.1928380593767098 13.514673828515797
O -4.5259743975526785 -3.7000352807565045 -16.839806595004767
H -4.616308631441417 -3.6405480575887887 -15.87685885324121
H -3.871582538895514 -3.018873213715381 -17.05602749604693
O 4.780833156153792 -10.075792749729498 3.7265810444467955
H 4.363347466836231 -10.520888182531735 4.479284911723715
H 4.906597640474941 -9.165300592997495 4.033418576885284
O 10.455266089371708 16.855007314608134 -6.323688078032576
H 10.594551051826844 17.068501501910543 -7.258560950738785
H 9.492455932462697 16.78364152078173 -6.240829949135209
O -16.213107853300507 6.329441281532305 2.0895593516795152
H -15.997692924424662 6.407141927253874 3.031114647438541
H -15.437080988861457 5.892966892813701 1.7071533397476697
O 1.964329892024181 -13.810787569610852 10.346036903038144
H 1.6622559027266037 -12.906692083547444 10.520192046429356
H 2.101112952139082 -14.186014006158699 11.228905783496169