194

C -5.0710522388059704 1.0783507462686561 0.47044029850746183
C -3.8153522388059704 0.1782507462686569 0.19534029850746193
C -4.11845223880597 -1.3219492537313435 0.5608402985074619
C -2.96945223880597 -2.3874492537313436 0.7034402985074619
C -2.52015223880597 0.7359507462686565 0.7384402985074618
C -2.20305223880597 0.7852507462686571 2.097440298507462
C -1.5755522388059702 1.205650746268656 -0.18965970149253808
C -0.9533522388059701 1.2695507462686564 2.508640298507462
H -2.91125223880597 0.4298507462686567 2.840840298507462
C -0.32655223880597006 1.6562507462686575 0.21554029850746192
H -1.7850522388059702 1.178550746268657 -1.2573597014925382
C 0.004447761194029898 1.6956507462686563 1.569740298507462
H -0.7158522388059702 1.2676507462686573 3.5705402985074617
H 0.3943477611940298 1.9193507462686572 -0.5551597014925382
C -1.76045223880597 -2.1592492537313435 -0.1734597014925381
C -0.5287522388059701 -1.936549253731343 0.464840298507462
C -1.8068522388059702 -2.121249253731343 -1.5681597014925381
C 0.6114477611940299 -1.614449253731343 -0.2582597014925381
H -0.4544522388059702 -1.954049253731343 1.5506402985074619
C -0.6479522388059701 -1.8270492537313432 -2.2998597014925384
H -2.74345223880597 -2.290549253731343 -2.092259701492538
C 0.5698477611940298 -1.5506492537313434 -1.6506597014925382
H 1.5072477611940298 -1.351949253731343 0.2991402985074618
H -0.7173522388059701 -1.7640492537313435 -3.3840597014925375
C 1.7791477611940298 -1.082849253731343 -2.4255597014925376
H 1.4739477611940297 -0.9102492537313429 -3.464259701492538
H 2.1252477611940295 -0.1337492537313434 -2.0010597014925384
C 1.3965477611940298 2.0964507462686566 1.997440298507462
H 1.51704776119403 1.8448507462686567 3.057640298507462
H 2.1256477611940294 1.5207507462686571 1.4165402985074618
C 3.94864776119403 -1.4275492537313434 -3.522959701492538
H 4.81734776119403 -2.087049253731343 -3.615159701492538
H 3.4305477611940303 -1.3641492537313429 -4.484459701492538
H 4.26984776119403 -0.441449253731343 -3.176459701492538
C 2.60904776119403 -3.4296492537313434 -2.8992597014925376
H 1.9825477611940296 -3.869549253731343 -2.119359701492538
H 2.06294776119403 -3.373349253731343 -3.845759701492538
H 3.5215477611940305 -4.019849253731343 -3.0234597014925377
C 3.7281477611940304 -2.060049253731343 -1.156659701492538
H 3.9048477611940298 -1.032549253731343 -0.8295597014925382
H 3.12924776119403 -2.623249253731343 -0.4404597014925382
H 4.68244776119403 -2.5769492537313434 -1.3005597014925383
C 3.1110477611940297 3.755250746268656 2.588740298507462
H 3.40124776119403 4.809350746268656 2.534540298507462
H 2.9823477611940303 3.461750746268656 3.634840298507462
H 3.86514776119403 3.1392507462686563 2.091540298507462
C 1.99744776119403 3.9574507462686572 0.40494029850746194
H 2.67914776119403 3.230350746268657 -0.04295970149253803
H 1.03214776119403 3.981150746268657 -0.10175970149253821
H 2.4399477611940297 4.958250746268657 0.368240298507462
C 0.7418477611940297 4.4992507462686575 2.475440298507462
H -0.18475223880597014 4.424250746268656 1.901240298507462
H 0.57844776119403 4.189650746268656 3.511940298507462
H 1.1210477611940297 5.524350746268658 2.4432402985074617
N 3.00114776119403 -2.025349253731343 -2.490159701492538
N 1.7831477611940298 3.586450746268657 1.862540298507462
C -3.55075223880597 -3.8435492537313434 0.6444402985074619
H -2.62515223880597 -2.2736492537313433 1.7424402985074618
H -4.67195223880597 -1.3478492537313436 1.5102402985074619
H -4.83415223880597 -1.6757492537313432 -0.1945597014925382
H -3.7169522388059697 0.17335074626865676 -0.900559701492538
H -3.9132522388059705 -4.043149253731343 -0.34225970149253815
H -4.35435223880597 -3.9354492537313432 1.3449402985074619
H -2.78115223880597 -4.545049253731343 0.8904402985074619
H -5.24235223880597 1.138950746268657 1.5249402985074618
H -5.92805223880597 0.6501507462686567 -0.006059701492538094
H -4.89895223880597 2.059650746268657 0.08004029850746197
C 4.395995603088904 -0.7883685807204985 1.5401200655263931
O 5.461980701373311 -0.8775753088962173 0.9506343333124858
O 4.1418773887030405 0.027798237365723955 2.4333877310513197
O 3.4063808575292436 -1.5004650375816104 1.334621462376056
O 10.156514018106204 3.545665381904458 -0.366530784820169
H 10.262840139096376 3.5030154948093393 0.5956766252666366
H 10.116098836409504 2.6166264864104307 -0.638955614906669
O 7.371942542450198 -3.253609648499562 2.0029708491757683
H 6.447165388152213 -2.992472443338006 1.8782233767808039
H 7.314672606389234 -4.111046131539202 2.4507261129931632
O -6.111866222409733 -1.711841117791884 3.9440295912659913
H -5.299593071846284 -1.5834448410556679 4.456566499101912
H -6.064419189722311 -2.6364308534252414 3.65794473645785
O -6.099991664335698 -2.5605086212381374 -7.0434046297874495
H -5.918255567180619 -2.590165830968406 -6.09205832175769
H -6.858310425762076 -3.1532702704041045 -7.155423501620752
O -3.5327993397634723 -3.7755811539723867 -4.003589296874296
H -3.3151725675940775 -3.4994644276370774 -4.906565209273404
H -4.428506739211522 -3.4333982333324355 -3.863657000043561
O -8.351202321945557 1.7342804487449874 -1.192044148934844
H -9.205757805291022 1.2786309445384676 -1.1590924858424945
H -7.703365519117409 1.0270257536412442 -1.053985402543629
O 0.9152703030383345 8.614961809020404 -1.5453019504745495
H 0.9421346176478833 8.684040220793847 -2.5114664491637835
H 1.0713218135741194 9.521738670142593 -1.2413848655765634
O 0.8828114983824062 4.414802618362833 -8.355230289018465
H 0.1411878803154072 4.687594320360729 -8.91607470001523
H 0.4592399450368414 3.9587716780872517 -7.612542693183046
O 7.56499118174956 7.3392958367779055 1.8434342562050672
H 8.395397336839823 7.421163890531276 2.3360706294692064
H 7.737247019257509 7.810440058692429 1.0143908358096128
O -0.3793751298938326 -0.40849882789839054 9.472361974101362
H -0.007420742002451242 0.014926804882074318 8.68411834188299
H 0.321307402366954 -0.32367170355429886 10.136297432003802
O -0.10867694670615147 -2.3389743377224215 -8.939135296662743
H -0.4403629990780955 -2.9347692751642853 -9.627597432208747
H -0.6491558134482258 -1.5410380622061872 -9.039843981097018
O -6.738494132875894 7.31141745400182 -0.230701360693514
H -6.4666884965171425 6.46705413667372 -0.6207521795547293
H -6.493083284061278 7.9680638274557225 -0.8996938866711415
O 1.271815060697966 -6.228660196712544 6.295824814000291
H 0.9232834234745435 -6.688524892803054 7.07429608260559
H 0.4998613867399253 -5.772672381532887 5.928231857089571
O -4.585427826745325 -7.535202817342652 -1.7477876388543674
H -4.514963745295581 -7.298855960993785 -0.8106951494919494
H -4.8500616826556335 -8.467277447011327 -1.7348357535071606
O -4.602600252796558 4.9858141063440655 -2.43349818709241
H -5.239221441829407 4.6946552687474785 -1.7634927021418711
H -4.232141043963233 5.802005139757385 -2.0653214416748273
O -2.571956063571835 -6.737052669476871 -5.501140622852236
H -2.300537293795539 -6.387114735566669 -4.639257422688906
H -2.4538984850802468 -7.694752753825188 -5.412625647283547
O -5.318286426998998 2.1462021525169965 6.451056033775201
H -5.015028608339824 1.9295264826759904 7.345513247073318
H -5.881483626383538 1.396456504033107 6.206817786391868
O -5.021428323272363 9.283991412935377 -4.4806241219378595
H -5.381075338187145 8.426767911582838 -4.207147888433407
H -4.088320263596755 9.098407595749077 -4.664553293270151
O -4.545470336317343 1.5827185154108274 -8.445516740019285
H -4.433914027188453 2.4275032754522985 -7.984147846404625
H -5.459354643312351 1.3275406252906086 -8.248891049627499
O -1.747046265259108 9.544101602905476 5.883476191031887
H -2.272958176724394 8.826754566083675 5.499032115720654
H -1.1028565891321156 9.08713017146744 6.444866176978263
C -6.56811883305795 4.423395927047386 17.300097787799064
O -5.9518667333160575 3.5047204449376648 16.842837505865266
O -7.184370932799842 5.342071409157109 17.757358069732867
O -15.704599034222323 -1.7453546166497071 -4.676871239025149
H -15.189300379127587 -1.521059511299459 -5.466254769809443
H -15.141799625566875 -1.4605947687708234 -3.9412554432777527
O 3.9895518333948994 -18.70725044345688 3.2408684789341686
H 3.0654344681077026 -18.460516703526046 3.396100285128642
H 4.459513350252042 -17.85990427432678 3.23073997292967
O -0.19249554542176828 19.127896206022022 11.623024434857115
H -0.8270365331157157 18.401750807590897 11.718092579751659
H 0.2091569013420722 18.975535763258392 10.75444884701833
O -1.5614309962282942 12.084443324141326 10.939649641233705
H -1.316291790469332 12.087182340287391 11.87712850739039
H -0.9913137268066015 11.404302471637937 10.55062950786897
O 6.262637505393977 0.771226093667079 -15.0827599133953
H 5.360432799933224 0.9267472100206193 -14.765258403615231
H 6.219895882801606 0.9900844082464237 -16.025753092658892
O 10.979860794013963 7.207903615460285 3.806487518822841
H 10.47283500048089 6.595397250041451 3.2526570809507693
H 10.596156947526982 7.0974805369511955 4.689403169507361
O 2.5890926306322997 -9.067000597159204 21.20478839801122
H 2.1113121100565992 -9.323397205062237 20.40169817237388
H 2.058218342458771 -8.344488173376082 21.57236183548363
O -4.50056625057607 3.993729232490839 14.185183645563711
H -3.834168960048504 4.001338412381409 14.888620997755723
H -4.008438614381347 4.258861221488583 13.393680416003974
O -15.339413809890628 -4.382557879699398 -5.899132299188798
H -15.370000241602947 -4.356162780454122 -4.930971607035403
H -16.06534514332359 -4.977466257330182 -6.140108782823505
O 1.0544574634546655 -11.729945886122392 -6.069197128372877
H 0.6036309669227045 -12.395793096103137 -5.5284843396526755
H 1.0900770748672488 -10.948757287493844 -5.496975527106739
O -0.5037168380421599 -13.670134285127578 7.591924401864794
H 0.013145867043921733 -14.40594907442139 7.23081929687789
H 0.08393700164888163 -12.904939274136296 7.5019160458614325
O 3.9345095837617134 14.985509083806168 -4.23454798663264
H 3.902964776004951 14.955059254167972 -3.2665370931616033
H 3.219279912616953 14.392974163385901 -4.51079213570499
O -11.793052534929933 -10.146263556293457 -1.836463786173054
H -11.390634527629128 -10.012701268465253 -2.707777862479724
H -12.735171070730445 -10.265065639096731 -2.029494027126902
O 6.846432575906447 3.506178725205787 -16.497118229571463
H 6.908112680993677 4.228869331314444 -17.139676561070427
H 7.757289580721235 3.3897144075659105 -16.187703420946356
O 4.877726261291777 11.720175229630803 -12.12636895048545
H 5.581459244573471 11.481031386205547 -12.748090324810992
H 4.944072779456277 12.684436440437256 -12.057373290031208
O -2.505698308966711 -5.122220884512333 8.160492265258972
H -1.639859578104534 -5.1258460944518305 7.725431916695845
H -2.5284595998833956 -5.961948730825919 8.64350469994503
O 4.39759028095482 13.017429367017016 4.5510310786552335
H 3.7750913443118805 13.209490224655358 3.8336922063350203
H 4.948787078127973 13.812768245816983 4.6018257925068635
O -18.616231284427805 1.2144598388868513 -4.00832943769182
H -18.968672723283667 1.8829696121432171 -3.401825462323205
H -19.01385965898181 0.38619010402733345 -3.700396220312978
O 6.022505018307594 -0.5335002436405629 16.85199975110194
H 6.322454814079753 -0.11432663441000113 17.67254284091555
H 6.833449615471929 -0.8949041894056036 16.463775598561895
O 7.687225317520822 1.7631043236146677 8.11267577385513
H 8.568658616876693 1.4211835530574728 8.325120784029995
H 7.432952737125642 2.2622175215708804 8.903367505685623