194

C -5.0710522388059704 1.0783507462686561 0.47044029850746183
C -3.8153522388059704 0.1782507462686569 0.19534029850746193
C -4.11845223880597 -1.3219492537313435 0.5608402985074619
C -2.96945223880597 -2.3874492537313436 0.7034402985074619
C -2.52015223880597 0.7359507462686565 0.7384402985074618
C -2.20305223880597 0.7852507462686571 2.097440298507462
C -1.5755522388059702 1.205650746268656 -0.18965970149253808
C -0.9533522388059701 1.2695507462686564 2.508640298507462
H -2.91125223880597 0.4298507462686567 2.840840298507462
C -0.32655223880597006 1.6562507462686575 0.21554029850746192
H -1.7850522388059702 1.178550746268657 -1.2573597014925382
C 0.004447761194029898 1.6956507462686563 1.569740298507462
H -0.7158522388059702 1.2676507462686573 3.5705402985074617
H 0.3943477611940298 1.9193507462686572 -0.5551597014925382
C -1.76045223880597 -2.1592492537313435 -0.1734597014925381
C -0.5287522388059701 -1.936549253731343 0.464840298507462
C -1.8068522388059702 -2.121249253731343 -1.5681597014925381
C 0.6114477611940299 -1.614449253731343 -0.2582597014925381
H -0.4544522388059702 -1.954049253731343 1.5506402985074619
C -0.6479522388059701 -1.8270492537313432 -2.2998597014925384
H -2.74345223880597 -2.290549253731343 -2.092259701492538
C 0.5698477611940298 -1.5506492537313434 -1.6506597014925382
H 1.5072477611940298 -1.351949253731343 0.2991402985074618
H -0.7173522388059701 -1.7640492537313435 -3.3840597014925375
C 1.7791477611940298 -1.082849253731343 -2.4255597014925376
H 1.4739477611940297 -0.9102492537313429 -3.464259701492538
H 2.1252477611940295 -0.1337492537313434 -2.0010597014925384
C 1.3965477611940298 2.0964507462686566 1.997440298507462
H 1.51704776119403 1.8448507462686567 3.057640298507462
H 2.1256477611940294 1.5207507462686571 1.4165402985074618
C 3.94864776119403 -1.4275492537313434 -3.522959701492538
H 4.81734776119403 -2.087049253731343 -3.615159701492538
H 3.4305477611940303 -1.3641492537313429 -4.484459701492538
H 4.26984776119403 -0.441449253731343 -3.176459701492538
C 2.60904776119403 -3.4296492537313434 -2.8992597014925376
H 1.9825477611940296 -3.869549253731343 -2.119359701492538
H 2.06294776119403 -3.373349253731343 -3.845759701492538
H 3.5215477611940305 -4.019849253731343 -3.0234597014925377
C 3.7281477611940304 -2.060049253731343 -1.156659701492538
H 3.9048477611940298 -1.032549253731343 -0.8295597014925382
H 3.12924776119403 -2.623249253731343 -0.4404597014925382
H 4.68244776119403 -2.5769492537313434 -1.3005597014925383
C 3.1110477611940297 3.755250746268656 2.588740298507462
H 3.40124776119403 4.809350746268656 2.534540298507462
H 2.9823477611940303 3.461750746268656 3.634840298507462
H 3.86514776119403 3.1392507462686563 2.091540298507462
C 1.99744776119403 3.9574507462686572 0.40494029850746194
H 2.67914776119403 3.230350746268657 -0.04295970149253803
H 1.03214776119403 3.981150746268657 -0.10175970149253821
H 2.4399477611940297 4.958250746268657 0.368240298507462
C 0.7418477611940297 4.4992507462686575 2.475440298507462
H -0.18475223880597014 4.424250746268656 1.901240298507462
H 0.57844776119403 4.189650746268656 3.511940298507462
H 1.1210477611940297 5.524350746268658 2.4432402985074617
N 3.00114776119403 -2.025349253731343 -2.490159701492538
N 1.7831477611940298 3.586450746268657 1.862540298507462
C -3.55075223880597 -3.8435492537313434 0.6444402985074619
H -2.62515223880597 -2.2736492537313433 1.7424402985074618
H -4.67195223880597 -1.3478492537313436 1.5102402985074619
H -4.83415223880597 -1.6757492537313432 -0.1945597014925382
H -3.7169522388059697 0.17335074626865676 -0.900559701492538
H -3.9132522388059705 -4.043149253731343 -0.34225970149253815
H -4.35435223880597 -3.9354492537313432 1.3449402985074619
H -2.78115223880597 -4.545049253731343 0.8904402985074619
H -5.24235223880597 1.138950746268657 1.5249402985074618
H -5.92805223880597 0.6501507462686567 -0.006059701492538094
H -4.89895223880597 2.059650746268657 0.08004029850746197
C -0.19786410847962088 2.417176159208495 -3.59121795323131
O 0.49407830676149533 1.410810639268145 -3.576397937526912
O -0.13985645356721443 3.3340033883487257 -2.7637553208553154
O -1.0631953607479394 2.6745115336182526 -4.4359834315299524
O 5.232662012063106 2.0848688433277798 0.39132466096223784
H 5.629487476826859 2.8249357881580686 0.8748511075859937
H 5.912948678000493 1.395382408091466 0.41926123328087983
O -3.309892028619343 6.3889903608640495 -0.1497389205011005
H -3.9916192183317234 6.4243164238511135 0.5379873804215085
H -2.8055560835951194 5.589000490526878 0.061503608868435256
O 6.36487077412243 -3.509200670714881 -8.476047162328724
H 6.226949207167538 -4.029106242891608 -9.28205162527437
H 7.151025798326191 -3.906920341811226 -8.072635108167969
O 0.15135117281234212 -4.665158490848944 2.5219636319858862
H 0.8624493129687251 -4.667041442055846 3.1802213675734645
H -0.6558095757238525 -4.570225108161127 3.0496388381249826
O -1.2886462673660017 5.436810590148837 -5.849606786308539
H -1.1490836179997306 5.536184273171869 -4.895869665858513
H -2.074470487461227 4.873489108128357 -5.913725015432412
O -2.191290540729959 9.666208138597522 -8.594988702963075
H -2.632658031656902 9.502877798776614 -9.442033740105044
H -1.2517821429535418 9.7173939105679 -8.826647787730725
O 1.3552609600284755 2.2211774320134188 9.014747363573095
H 1.6821351796409867 1.9277625816263841 8.151018050058111
H 1.0715474128944753 1.402259668346574 9.448155097495249
O 4.306867288969967 9.081858010138477 0.44698328327633075
H 3.9875644768241134 8.505083031624714 -0.2631883123371517
H 5.27101687904892 8.995655443394064 0.4028626561586326
O 2.624126999987319 3.8520947509227907 -4.5684681970906205
H 2.788725663408016 3.244707297394389 -5.305323079816118
H 1.864679602816424 3.462848065720699 -4.10945990382182
O -6.820716550914801 3.203802830634147 -3.9222898887183195
H -6.370590607213401 2.4287914057501663 -3.5538997653352054
H -7.386053323530006 3.5122552910027256 -3.1982640897846117
O -2.356899488136291 -4.813017938292987 4.4243705328333345
H -2.1015201163763075 -5.747704564401499 4.413899412866321
H -3.3158569968403895 -4.833918532878483 4.561940900085878
O -3.6006791099551347 -6.442756031341626 -3.2346678579190966
H -3.8663024499401737 -6.866203527445453 -2.4045450861566344
H -4.400590505507685 -6.4755831537495405 -3.7805855106833093
O -1.4684673745941357 -1.211815364121082 4.851313077543419
H -0.6930603002930357 -1.7832813103376026 4.745776835717847
H -1.8668404565754535 -1.5090914431032507 5.683110988527628
O -7.121189603010278 -1.2901256571319921 -8.786776764553608
H -7.29591325148006 -0.771183862050715 -7.987315435355484
H -6.396324307479585 -1.8794790539005763 -8.52949322183754
O -5.3388841796811075 2.9854076017322533 -10.736698219228348
H -6.077432194293015 2.395453311271905 -10.94993077345081
H -5.680592977290737 3.537697285323071 -10.017550704920376
O 6.380048001070128 6.685241033411444 -5.740674000429804
H 6.430441559924524 6.644920674620395 -4.7738223495583005
H 5.5891204672889465 6.168318884955665 -5.9555857801038785
O -2.755433932564466 -3.024445514932132 9.900746671528887
H -2.838547738364606 -3.7701686265739145 9.287593759973609
H -2.675539738966835 -2.2523199564373355 9.320745823211851
O -4.90765643704062 -1.1707050944242827 7.408495755629066
H -5.094156843470806 -0.3399336081218336 6.945890424003721
H -4.531444641519426 -1.7416081706082187 6.721839868874693
O 1.9867278523811573 8.049077902441788 -2.3410842596912365
H 1.4771264359826242 7.860236009055223 -1.5388296289119632
H 1.8153997682832106 7.2853869760534025 -2.912385231904112
O -10.365355808951005 1.3613918316139566 -6.518885082433312
H -10.187904954366676 1.4478700578506372 -5.570201748810207
H -10.763864112940077 0.48216921406770297 -6.603269113783252
C 9.765642196937732 13.123654754419263 -5.6037414615770675
O 9.7659951564324 13.60422611105302 -6.700039461166041
O 9.765289237443064 12.643083397785507 -4.5074434619880925
O -8.421181406522363 -0.5599183481103731 4.798885979600109
H -8.462566120200446 -0.6003306281896474 3.8316106775311587
H -7.946519454110183 -1.3675069649206146 5.046794432926686
O -10.952534026062274 -13.557993108679744 11.945215475505321
H -11.040686793955436 -13.58329044016088 12.909869035822553
H -11.093428979422988 -12.625716217565117 11.721674976465149
O 7.51316175540642 17.43916237970328 -5.2585467651640965
H 7.539868411160944 16.686045964946963 -5.867701734989507
H 6.935020225471877 17.139428340515686 -4.540999678613509
O -7.93026432502783 2.3818547799807877 13.704307365165086
H -8.765151688392319 2.3113767669793246 14.191096125386249
H -8.166752900525072 2.874541497081306 12.904123075921666
O 16.501352285834706 1.3311343261592947 1.8479481308943613
H 16.416239447871693 1.4517199334713462 2.8056444674348464
H 17.44149281812753 1.134727869771556 1.7194093129077999
O 1.686491492048986 -14.308071404115974 -7.533191706836014
H 2.101110764735214 -15.016087631244194 -7.017661651708025
H 1.251585148444451 -13.75642128990716 -6.86573341743814
O 5.200917244643566 -19.05752898395587 2.7052751536018658
H 4.696353647011063 -19.64997147756724 3.2826786733414703
H 5.7275845307970945 -19.657985884876023 2.156608566198331
O -9.041347206342422 15.50121815916563 -0.3732306163247916
H -8.198046776985825 15.769361347889078 0.021625019431114723
H -8.784291803291826 15.058385586585459 -1.1958993082807474
O -9.532415603338391 -9.163688462172153 2.9354700958213704
H -9.550970743135423 -9.23712540168133 1.969431753102698
H -10.349315507186363 -8.688620769772397 3.1498230268280234
O -15.063069440521797 -1.8528872947783075 -11.492670092404342
H -15.365189573718158 -2.224696733856458 -12.334957764776323
H -14.523167895812392 -2.558351747899657 -11.10564532355538
O -10.010678880185397 -10.866727090164439 6.254686418119412
H -10.272747960442066 -10.665999421090028 7.165727337585371
H -10.815026777672232 -11.229615643922456 5.854313714679324
O 5.1890321977836384 -7.735507857309097 -15.425853229449526
H 5.165119486158552 -8.614720723814175 -15.832522965838482
H 5.593920296530457 -7.174679559220681 -16.104454137094393
O 8.198847415324678 -0.1964120739998383 20.730133176306147
H 7.3450457680007855 -0.4070381130739338 20.323160479935776
H 8.846448010011944 -0.4218537321365057 20.045478903817255
O -4.786425811368065 -3.4023548882794366 -10.893095702467459
H -5.450608214889938 -3.676496172106222 -10.242960602466152
H -4.38164642130314 -4.234882368932847 -11.179475840807306
O -8.717656339091938 -9.28921174015431 -2.0241701221440382
H -8.418933173121246 -9.332564326549779 -1.103381123368928
H -8.14231527757773 -9.916921592649516 -2.4866903360981425
O -7.6159201203287985 12.960779738514836 -9.898174281508629
H -6.904271183448268 12.620840951093127 -9.335178039653433
H -7.176968200195393 13.617637099763794 -10.459263902767344
O 20.486672015189793 -6.781961976892518 8.039889280083477
H 20.314200276161397 -6.5189189590851635 7.12335819663932
H 19.611935672615605 -7.016262587761275 8.38471024671176
O -0.40991268465328456 4.542113787368465 13.742833723442995
H -1.0453808468199015 4.762389052086533 13.045247614402708
H -0.3485752730004341 3.5757233439289617 13.706928611543333
O 5.879186160303734 10.000775240697019 15.322784434544927
H 6.264961979383223 9.670577596635953 16.14808067842955
H 6.631486657632433 10.389781833577672 14.851955615636848
O -7.936237561366333 3.096631333749807 8.42600691722013
H -7.28021152193695 3.6482037904857987 8.878074409372378
H -7.4295810417662445 2.3255556982820274 8.12985918409579