194

C -5.0710522388059704 1.0783507462686561 0.47044029850746183
C -3.8153522388059704 0.1782507462686569 0.19534029850746193
C -4.11845223880597 -1.3219492537313435 0.5608402985074619
C -2.96945223880597 -2.3874492537313436 0.7034402985074619
C -2.52015223880597 0.7359507462686565 0.7384402985074618
C -2.20305223880597 0.7852507462686571 2.097440298507462
C -1.5755522388059702 1.205650746268656 -0.18965970149253808
C -0.9533522388059701 1.2695507462686564 2.508640298507462
H -2.91125223880597 0.4298507462686567 2.840840298507462
C -0.32655223880597006 1.6562507462686575 0.21554029850746192
H -1.7850522388059702 1.178550746268657 -1.2573597014925382
C 0.004447761194029898 1.6956507462686563 1.569740298507462
H -0.7158522388059702 1.2676507462686573 3.5705402985074617
H 0.3943477611940298 1.9193507462686572 -0.5551597014925382
C -1.76045223880597 -2.1592492537313435 -0.1734597014925381
C -0.5287522388059701 -1.936549253731343 0.464840298507462
C -1.8068522388059702 -2.121249253731343 -1.5681597014925381
C 0.6114477611940299 -1.614449253731343 -0.2582597014925381
H -0.4544522388059702 -1.954049253731343 1.5506402985074619
C -0.6479522388059701 -1.8270492537313432 -2.2998597014925384
H -2.74345223880597 -2.290549253731343 -2.092259701492538
C 0.5698477611940298 -1.5506492537313434 -1.6506597014925382
H 1.5072477611940298 -1.351949253731343 0.2991402985074618
H -0.7173522388059701 -1.7640492537313435 -3.3840597014925375
C 1.7791477611940298 -1.082849253731343 -2.4255597014925376
H 1.4739477611940297 -0.9102492537313429 -3.464259701492538
H 2.1252477611940295 -0.1337492537313434 -2.0010597014925384
C 1.3965477611940298 2.0964507462686566 1.997440298507462
H 1.51704776119403 1.8448507462686567 3.057640298507462
H 2.1256477611940294 1.5207507462686571 1.4165402985074618
C 3.94864776119403 -1.4275492537313434 -3.522959701492538
H 4.81734776119403 -2.087049253731343 -3.615159701492538
H 3.4305477611940303 -1.3641492537313429 -4.484459701492538
H 4.26984776119403 -0.441449253731343 -3.176459701492538
C 2.60904776119403 -3.4296492537313434 -2.8992597014925376
H 1.9825477611940296 -3.869549253731343 -2.119359701492538
H 2.06294776119403 -3.373349253731343 -3.845759701492538
H 3.5215477611940305 -4.019849253731343 -3.0234597014925377
C 3.7281477611940304 -2.060049253731343 -1.156659701492538
H 3.9048477611940298 -1.032549253731343 -0.8295597014925382
H 3.12924776119403 -2.623249253731343 -0.4404597014925382
H 4.68244776119403 -2.5769492537313434 -1.3005597014925383
C 3.1110477611940297 3.755250746268656 2.588740298507462
H 3.40124776119403 4.809350746268656 2.534540298507462
H 2.9823477611940303 3.461750746268656 3.634840298507462
H 3.86514776119403 3.1392507462686563 2.091540298507462
C 1.99744776119403 3.9574507462686572 0.40494029850746194
H 2.67914776119403 3.230350746268657 -0.04295970149253803
H 1.03214776119403 3.981150746268657 -0.10175970149253821
H 2.4399477611940297 4.958250746268657 0.368240298507462
C 0.7418477611940297 4.4992507462686575 2.475440298507462
H -0.18475223880597014 4.424250746268656 1.901240298507462
H 0.57844776119403 4.189650746268656 3.511940298507462
H 1.1210477611940297 5.524350746268658 2.4432402985074617
N 3.00114776119403 -2.025349253731343 -2.490159701492538
N 1.7831477611940298 3.586450746268657 1.862540298507462
C -3.55075223880597 -3.8435492537313434 0.6444402985074619
H -2.62515223880597 -2.2736492537313433 1.7424402985074618
H -4.67195223880597 -1.3478492537313436 1.5102402985074619
H -4.83415223880597 -1.6757492537313432 -0.1945597014925382
H -3.7169522388059697 0.17335074626865676 -0.900559701492538
H -3.9132522388059705 -4.043149253731343 -0.34225970149253815
H -4.35435223880597 -3.9354492537313432 1.3449402985074619
H -2.78115223880597 -4.545049253731343 0.8904402985074619
H -5.24235223880597 1.138950746268657 1.5249402985074618
H -5.92805223880597 0.6501507462686567 -0.006059701492538094
H -4.89895223880597 2.059650746268657 0.08004029850746197
C -1.0683448709863506 2.450202944034095 -3.081272780421276
O -0.2234660051607109 1.7687619206224872 -2.521278733762813
O -1.4428470783856004 3.568361037428774 -2.7096519535976626
O -1.6795985661272137 2.127099455489253 -4.106271043964583
O 4.488732772883538 -5.590573590083388 -0.2979203095032372
H 3.90239037216655 -5.758593278660462 0.4550334276359731
H 5.35887798828137 -5.8818624785057265 0.013463749019253068
O 9.445482846043987 -3.507554984047528 -1.6120452812963717
H 9.069710955449409 -2.711740194063482 -1.2065312085669206
H 9.604737510402876 -3.2485290829784437 -2.532102604920985
O 6.579509544794939 -7.0432351908697886 -4.907209357604057
H 6.155654629768396 -7.552447305709212 -4.200090279931415
H 6.9190513158986935 -7.720070661935829 -5.511830788817456
O 7.566842266282217 -2.141301017395092 3.4108971771982315
H 7.7878386727678475 -2.8910267510898784 2.8381500519708296
H 6.713300687022045 -1.831757278078496 3.0723541367676988
O -0.46183618838781637 2.295739223729855 -6.721193859851198
H -1.1803816953162287 2.771474251228499 -7.164291924599686
H -0.5509583115295635 2.5510541298310674 -5.790692118751679
O -7.4607413924533645 0.4675417408460727 -2.028193139753733
H -7.309425654663653 0.7788675731728434 -2.93326061266567
H -7.794900745901839 1.2499351417845967 -1.5643396747771867
O 1.0177519165167297 -9.685308174145927 -4.69268133283731
H 1.1533148698457647 -9.72603854449846 -5.651290262232221
H 1.3879796266818714 -10.51996244611277 -4.368265499047753
O -4.423578649131352 -3.4534672907729083 4.659462103056745
H -5.160018268711211 -3.774818133486048 4.1178370671687885
H -4.827330448887533 -2.780599028696869 5.227964284569195
O 2.456585600183055 -6.160817479086986 -7.883345736106845
H 2.8221210888743036 -7.056277372780164 -7.942529705171563
H 2.717073125839952 -5.745945178070723 -8.71940145621563
O -2.693980913033189 -8.409813373199897 -6.209108686824984
H -2.513624817169785 -8.710137942383104 -5.3056463529505535
H -2.223101480778852 -7.565363170529773 -6.273438771468301
O -5.558749249157302 -10.212229557846857 4.092993899271849
H -5.624083830288106 -10.39431940440708 5.042489574453225
H -4.821154498932103 -9.58753001138147 4.024682806569669
O 1.1688475307277277 -0.8542772799996516 8.57413186638153
H 1.9729376390092348 -0.5487279939696084 8.127986051125612
H 1.2278228906811128 -1.82034026444333 8.52716207496044
O 5.10167050446757 2.1563127993310185 7.132519283203138
H 5.002004775956764 2.5609262404591493 6.25769240734777
H 6.047887016962755 1.9558485917658053 7.191259025002887
O 6.9553008165340895 1.674159952603967 -2.7231030990266287
H 6.118647232596259 1.195022247573971 -2.626122704087371
H 7.323434878185097 1.336622479969504 -3.5534691096026103
O 0.9358853177248587 7.314816048206675 -9.075482154479522
H 1.5327407684984973 8.06460746698402 -9.218813086624873
H 1.5305198430059068 6.553497785849057 -8.999546464289992
O -5.2666572565921985 4.260877238082192 -6.589313923838271
H -4.552411809990026 4.905274970952354 -6.705814399287346
H -5.025261040530265 3.5340334978714236 -7.182936689984753
O -5.910772014492488 4.584450386848685 4.93070316079358
H -5.785475797870362 3.9990388924482656 5.6926490888121295
H -5.375266663328854 4.1781135420067335 4.232787455497445
O 4.669871262561293 2.017582521224787 -6.6423109415672155
H 4.290783490701271 2.4670849130942543 -5.872111345469013
H 4.09728808000337 2.287326377314355 -7.376033433694701
O 6.262760638837081 6.4816978749184 1.383085917633354
H 6.482611839747516 6.995594390523223 2.1746307221816887
H 6.159969835487585 7.151381622636135 0.6903235679855868
O -4.011689467458758 6.6483574918471735 2.849294958510108
H -4.9209790225649215 6.6977650590621565 3.180533172152095
H -3.6049746426783966 7.471826134232904 3.1582357143376303
C -16.13082247685605 1.8109212212869314 -4.185347124247673
O -15.670568082039237 1.934181239259991 -5.283432329193578
O -16.59107687167287 1.6876612033138727 -3.0872619193017687
O 4.722089199926116 -14.102948917315535 -0.8769626978996762
H 4.800561331347892 -14.207124059789969 0.08322323262657139
H 5.639067560991891 -14.118547813552578 -1.1898033986937242
O -4.752439796492302 -10.70000770329079 -3.2564411986418174
H -4.372867358093474 -10.797043722251205 -2.3701702852455333
H -4.801219528390489 -9.74100921270851 -3.386458032616698
O 2.889900552576271 1.402114924967249 -16.09281993157346
H 2.6933971582483998 1.204427429392251 -15.164771750167496
H 2.1739973542416697 1.997055378421343 -16.36206036642329
O -3.899938498509508 -13.149240344040901 2.062471712727622
H -3.685471110393661 -12.383757335646674 1.508389715010236
H -3.142729392861381 -13.223310840423183 2.662563269233164
O -8.094227406405698 -9.592779954434942 -4.078185902558452
H -7.590560525525853 -10.052210623823358 -4.766815331228241
H -8.994968218237245 -9.55423867028187 -4.433351362051456
O 5.38888830458373 -10.980131960092752 -5.801906278369334
H 5.379376247892511 -11.12387228563535 -6.760141946924002
H 5.999925010580063 -11.655014237891649 -5.470047875826736
O -19.109214541407784 -8.401844738816434 -0.1512704374607896
H -18.63540158121372 -8.334900369712525 -0.9938777523456173
H -19.915839188526927 -7.884365941525233 -0.2945684392401944
O 14.839121938716648 1.2147526503120711 -7.258772685730178
H 14.764771062299062 1.3739784630281502 -8.211708383792141
H 14.120982842933794 0.5925714857466624 -7.068696959062578
O -11.037071016082882 6.837234249410763 3.310862327944994
H -10.450237960390892 6.390286958032693 3.9392192650253524
H -10.448007309149482 7.103028208213093 2.588837768156295
O -15.798526940210435 -0.5991169373684722 -0.2741962158401755
H -16.013134559361312 -0.7428011438971183 0.6597554828555473
H -16.451268027620984 0.05470582977409144 -0.5664406448240891
O -11.566544586187435 12.234834656740176 -14.242917259979155
H -10.729283334807928 12.294179734430106 -13.758728127932176
H -12.233412976044443 12.495984299460746 -13.590192694012437
O 11.074777743574149 10.254599419139357 -13.108706273569963
H 10.951179833124955 10.44805151479321 -14.050123928025055
H 11.502531491467932 11.051199056030885 -12.760255855336455
O 1.0959003854779699 -6.557745723061327 -15.051627758931076
H 0.44555363328705677 -5.87672191184954 -14.823104177265412
H 1.6815806308249068 -6.590291808095818 -14.280342243146372
O -5.46728878408056 -2.154526530067013 13.008544638019607
H -4.513490695451465 -2.1302343979583753 12.839292000388458
H -5.830565070961796 -1.4977571641945122 12.395644741020746
O 10.108617256288474 3.7214791418560376 2.8905584776259268
H 10.964597148523659 3.938009117984953 2.4913335404956727
H 9.469968228178551 4.221839639785017 2.3607200727263624
O 4.889311132958043 7.31188779358251 15.513133307701018
H 5.451661907976076 6.840151334755079 14.880524679756718
H 5.33391205502303 8.164782472756801 15.630872980858143
O -3.771411671212343 17.34688233473735 -12.04939412395211
H -4.508028841484219 17.911736642515553 -12.327426698203887
H -3.039718298123292 17.616377350517794 -12.624684649293059
O 7.6394347195151475 -9.344086661564152 16.844001299496007
H 7.634569584958163 -8.949384827445702 17.72896127006489
H 6.712632999079008 -9.579876760944035 16.68778496126267
O 6.505507079739115 -2.3697559834868973 -9.374401262525344
H 6.995778526801654 -1.5408137850212666 -9.267368105521678
H 5.735263837597838 -2.2624481994146732 -8.796324856058863
O -8.48539479232498 8.01230080494401 -4.857742532575065
H -8.78420230550366 7.105600211098444 -4.691683928196754
H -9.30669439403782 8.508157226922838 -4.993960436349439