194

C -5.0710522388059704 1.0783507462686561 0.47044029850746183
C -3.8153522388059704 0.1782507462686569 0.19534029850746193
C -4.11845223880597 -1.3219492537313435 0.5608402985074619
C -2.96945223880597 -2.3874492537313436 0.7034402985074619
C -2.52015223880597 0.7359507462686565 0.7384402985074618
C -2.20305223880597 0.7852507462686571 2.097440298507462
C -1.5755522388059702 1.205650746268656 -0.18965970149253808
C -0.9533522388059701 1.2695507462686564 2.508640298507462
H -2.91125223880597 0.4298507462686567 2.840840298507462
C -0.32655223880597006 1.6562507462686575 0.21554029850746192
H -1.7850522388059702 1.178550746268657 -1.2573597014925382
C 0.004447761194029898 1.6956507462686563 1.569740298507462
H -0.7158522388059702 1.2676507462686573 3.5705402985074617
H 0.3943477611940298 1.9193507462686572 -0.5551597014925382
C -1.76045223880597 -2.1592492537313435 -0.1734597014925381
C -0.5287522388059701 -1.936549253731343 0.464840298507462
C -1.8068522388059702 -2.121249253731343 -1.5681597014925381
C 0.6114477611940299 -1.614449253731343 -0.2582597014925381
H -0.4544522388059702 -1.954049253731343 1.5506402985074619
C -0.6479522388059701 -1.8270492537313432 -2.2998597014925384
H -2.74345223880597 -2.290549253731343 -2.092259701492538
C 0.5698477611940298 -1.5506492537313434 -1.6506597014925382
H 1.5072477611940298 -1.351949253731343 0.2991402985074618
H -0.7173522388059701 -1.7640492537313435 -3.3840597014925375
C 1.7791477611940298 -1.082849253731343 -2.4255597014925376
H 1.4739477611940297 -0.9102492537313429 -3.464259701492538
H 2.1252477611940295 -0.1337492537313434 -2.0010597014925384
C 1.3965477611940298 2.0964507462686566 1.997440298507462
H 1.51704776119403 1.8448507462686567 3.057640298507462
H 2.1256477611940294 1.5207507462686571 1.4165402985074618
C 3.94864776119403 -1.4275492537313434 -3.522959701492538
H 4.81734776119403 -2.087049253731343 -3.615159701492538
H 3.4305477611940303 -1.3641492537313429 -4.484459701492538
H 4.26984776119403 -0.441449253731343 -3.176459701492538
C 2.60904776119403 -3.4296492537313434 -2.8992597014925376
H 1.9825477611940296 -3.869549253731343 -2.119359701492538
H 2.06294776119403 -3.373349253731343 -3.845759701492538
H 3.5215477611940305 -4.019849253731343 -3.0234597014925377
C 3.7281477611940304 -2.060049253731343 -1.156659701492538
H 3.9048477611940298 -1.032549253731343 -0.8295597014925382
H 3.12924776119403 -2.623249253731343 -0.4404597014925382
H 4.68244776119403 -2.5769492537313434 -1.3005597014925383
C 3.1110477611940297 3.755250746268656 2.588740298507462
H 3.40124776119403 4.809350746268656 2.534540298507462
H 2.9823477611940303 3.461750746268656 3.634840298507462
H 3.86514776119403 3.1392507462686563 2.091540298507462
C 1.99744776119403 3.9574507462686572 0.40494029850746194
H 2.67914776119403 3.230350746268657 -0.04295970149253803
H 1.03214776119403 3.981150746268657 -0.10175970149253821
H 2.4399477611940297 4.958250746268657 0.368240298507462
C 0.7418477611940297 4.4992507462686575 2.475440298507462
H -0.18475223880597014 4.424250746268656 1.901240298507462
H 0.57844776119403 4.189650746268656 3.511940298507462
H 1.1210477611940297 5.524350746268658 2.4432402985074617
N 3.00114776119403 -2.025349253731343 -2.490159701492538
N 1.7831477611940298 3.586450746268657 1.862540298507462
C -3.55075223880597 -3.8435492537313434 0.6444402985074619
H -2.62515223880597 -2.2736492537313433 1.7424402985074618
H -4.67195223880597 -1.3478492537313436 1.5102402985074619
H -4.83415223880597 -1.6757492537313432 -0.1945597014925382
H -3.7169522388059697 0.17335074626865676 -0.900559701492538
H -3.9132522388059705 -4.043149253731343 -0.34225970149253815
H -4.35435223880597 -3.9354492537313432 1.3449402985074619
H -2.78115223880597 -4.545049253731343 0.8904402985074619
H -5.24235223880597 1.138950746268657 1.5249402985074618
H -5.92805223880597 0.6501507462686567 -0.006059701492538094
H -4.89895223880597 2.059650746268657 0.08004029850746197
C 2.728604711777474 -0.6815548359099076 3.0673231831997807
O 3.3878141890530036 -1.5988978626010542 3.5317584693820963
O 3.1619451903023443 0.4467756099873903 2.807096553830223
O 1.5261264742010887 -0.7395925085186578 2.7856742863204382
O 3.6188136877820734 -7.252632338452532 2.074872640187372
H 2.9923317079721476 -7.468596124829931 1.367873822050472
H 4.438003586352323 -7.037581738206081 1.6040827786630354
O -1.6221876549484562 1.016392747435181 -6.754065773917596
H -1.608138525910671 1.2125775334775886 -7.702897428426854
H -1.6227827805052037 0.0481708028731892 -6.715234649878153
O 1.6377654811895612 6.585506851758101 4.629470295550252
H 0.8910688044891399 6.858717588507936 4.0756044966159255
H 2.348978347169237 7.194807754791876 4.380692054686624
O 1.6244043899748886 -8.072737139371057 -4.2939845838599915
H 1.8260014748438889 -7.827130792587115 -5.209409891950045
H 1.609273809623235 -7.226328609195751 -3.8224704166447334
O 2.550177570511663 -1.3009629572776613 -7.5122345472321586
H 3.2284549827841365 -1.7018688097077788 -8.076310434314951
H 2.1005311368439608 -2.059974667149258 -7.1113838851799285
O -6.590960509641728 3.5024874869277913 0.9388889431496209
H -6.444867896993186 3.876046176580555 0.056801526385027445
H -5.721567683916592 3.55743449706571 1.3632695328972728
O 0.4338970632089957 8.909144374899892 0.8481536785115431
H 0.9422578669201582 9.73283043664842 0.8025694506323515
H 0.1382368419987301 8.765818840041922 -0.06344095121790683
O 10.298546256657676 1.0355252574082403 -0.6880677709326113
H 10.782557172512591 1.5717027854579255 -1.3339891660325236
H 10.995820477717647 0.5829349169023857 -0.1901394742612883
O 2.3481031250452444 2.651779488061604 -4.596701216904678
H 2.121712721699115 1.9084783689423865 -4.01772091629947
H 2.439377504474153 3.401747142646191 -3.989923292918677
O 8.858285020231515 -5.686354153933544 -1.097485498626659
H 8.929829457113978 -5.779864590041814 -2.0593090525023237
H 7.952760728650664 -5.370084699052422 -0.9597853404343214
O -2.0014681739806544 6.225525551366001 -4.113452917903565
H -2.4488916425514495 5.664607067719129 -4.764720951339395
H -1.6755279124144116 6.974745385414316 -4.634408319505991
O 3.902842615426649 -13.66827050897142 -0.9472093904920403
H 3.334467010023989 -13.255735425764106 -0.27957825490421007
H 4.329631018029271 -12.91783790355616 -1.387282689424805
O 2.122105387278468 -2.178043556308532 -10.481932382696318
H 2.1576062174565704 -1.6529859625742889 -11.295579462958191
H 1.1740889573493893 -2.3038694892486253 -10.325744587128685
O -0.407827653679218 -6.96217379400796 8.006259477240363
H 0.060295070580631105 -7.102908896918227 8.84293271258399
H -1.059979751572416 -6.276658782734822 8.215373692043398
O -6.166900792984756 5.689290184357015 3.620911941897237
H -5.856728482010386 4.7713072104057614 3.6126806637199596
H -5.367118753392099 6.204952057838748 3.8036780921612285
O -4.1377745331750155 -0.6805231608978561 7.6163605672307595
H -4.131244304281838 -0.8496317785053062 8.570471141777285
H -3.330113719473151 -1.110210147291387 7.296962621034344
O -0.8591465220493391 -1.7270901477458933 7.638490144776915
H -0.03797469392241215 -2.2234744957218417 7.503409558921005
H -0.8121116943221254 -1.4442555182844479 8.564100344406368
O 5.081958381391043 -4.593215574007054 4.608890088783433
H 5.147501406960057 -4.548822561734659 5.574654412601952
H 5.62397741524337 -3.8504625028455233 4.303120262734652
O -7.432267306500005 -3.5781782668917517 -1.7512684331799262
H -6.530715431529523 -3.885069365916271 -1.572412549919881
H -7.610872547978111 -3.8885813552262816 -2.6516639211567004
O 3.6459040478762303 4.765517824014188 -4.9368216859966925
H 4.3762768232549005 5.346076518389704 -5.198498143230921
H 2.9188015761777315 5.0257855091479575 -5.522094846174948
C -4.947948487699586 -17.89626746787628 1.497136093113911
O -4.397229288565139 -18.95516178462988 1.5880725926707062
O -5.498667686834034 -16.837373151122684 1.4061995935571159
O -14.032351840461281 2.323514306205909 -3.473369340808798
H -14.148843696662835 2.433202767957903 -4.429070887159539
H -14.800791912158534 2.7730649482502048 -3.090791217090934
O 9.883315436489983 -8.13443366782393 -9.098387569779737
H 9.939475481291998 -8.317130237835746 -8.148421586402565
H 9.794858954064022 -9.011568434729078 -9.500596465383852
O 1.0316322671607017 8.230552762054792 9.954113768338676
H 1.433115052125686 7.3491205815936205 9.983375373288283
H 0.8903927683300914 8.454476343272606 10.886246579715179
O -15.87453002818713 14.261657345245268 -10.476381896165671
H -15.001481656531109 14.469995134341945 -10.84155208016633
H -15.678490026917604 13.734020360897329 -9.687630049923486
O 10.056313497259243 14.137147645464523 -1.027855426842521
H 9.690837683680822 14.302645461745856 -0.1458093626285808
H 10.803525270478893 13.542404874339145 -0.8637897495786557
O 3.822882309173704 14.04291695384997 -9.02427203495057
H 3.577747735942473 14.979091929935962 -8.974746162347081
H 3.630253835136744 13.798762758781146 -9.942011074286093
O -15.489313451208165 1.0527995561604069 13.98190092183754
H -14.72800986144353 1.6331381209360947 13.831596725803035
H -15.516081114566587 0.9464556324331932 14.944676288361126
O -10.027361152335779 -12.035564285287876 15.869262495107996
H -9.104550121449456 -11.84079588759002 15.646883473092132
H -10.408338431161411 -11.167216958246485 16.068739754309867
O -16.144219647998398 7.1937323491232155 1.7797054989534393
H -16.753927029231043 6.7971619413501045 1.1394272954753744
H -15.442376237430242 6.532471895945418 1.875164308945788
O -4.278796595626336 14.38316140300577 -1.0813537341311381
H -3.840096314160649 14.950185023329349 -0.4294383761765408
H -3.670377013157306 14.379526692170035 -1.835525030883642
O 6.9392229522087145 -8.109081626721697 6.113017106199046
H 6.8658871667536845 -7.819065602057519 7.034689458453188
H 7.785075433476393 -7.739673434185865 5.818003358179194
O 18.445887563915086 -12.132509354901671 -7.5590100905654705
H 18.134202690163356 -12.852135216134569 -8.128183628442262
H 18.36372233610704 -11.342611660828785 -8.114232976024622
O -1.9562346050749726 -3.955156730601691 -13.040259949719601
H -1.3578814465664486 -4.635723988451333 -13.383434922795864
H -1.6551400396001679 -3.8163010591303332 -12.129752887999718
O 10.447639096578158 -10.934379956621 -7.6568812464262646
H 10.919897087825838 -10.51720628902526 -8.393023812555564
H 10.443874508806598 -10.254840658903706 -6.966103340702002
O -9.898887255566839 11.585373397281286 -3.507875781312859
H -10.381086686929589 12.42218585591517 -3.4291612695087546
H -8.966871166512902 11.85024549575587 -3.4955987501459274
O -12.229386725903062 -1.7296526907094059 12.158277017234207
H -12.273985739548408 -2.268574248082908 12.96235527205769
H -12.357373689559918 -2.368444117306882 11.440971786011499
O 15.459201178432565 6.563521599918339 15.86649933924092
H 15.618189136722233 6.21326921061936 14.977109970174006
H 16.325267077874706 6.897271052462823 16.144893134160508
O -2.856142622244964 -17.301944574708212 -4.261003958978659
H -3.6566907311030628 -17.679338094874137 -3.866460915394698
H -3.1820898851386232 -16.549886049680858 -4.777848520762777
O 0.06953249694454922 9.45906459807735 17.277790569917002
H 0.3301557413179701 9.501673720928958 16.345466943678726
H -0.7739896432500286 9.935067191288152 17.307011701964687
O 2.619865868221137 -8.930053786053604 5.134188059212872
H 2.7968244560572515 -8.909686457901756 6.086678577294288
H 2.4830546403247413 -7.99938608310222 4.901589136376428