104

C -5.0710522388059704 1.0783507462686561 0.47044029850746183
C -3.8153522388059704 0.1782507462686569 0.19534029850746193
C -4.11845223880597 -1.3219492537313435 0.5608402985074619
C -2.96945223880597 -2.3874492537313436 0.7034402985074619
C -2.52015223880597 0.7359507462686565 0.7384402985074618
C -2.20305223880597 0.7852507462686571 2.097440298507462
C -1.5755522388059702 1.205650746268656 -0.18965970149253808
C -0.9533522388059701 1.2695507462686564 2.508640298507462
H -2.91125223880597 0.4298507462686567 2.840840298507462
C -0.32655223880597006 1.6562507462686575 0.21554029850746192
H -1.7850522388059702 1.178550746268657 -1.2573597014925382
C 0.004447761194029898 1.6956507462686563 1.569740298507462
H -0.7158522388059702 1.2676507462686573 3.5705402985074617
H 0.3943477611940298 1.9193507462686572 -0.5551597014925382
C -1.76045223880597 -2.1592492537313435 -0.1734597014925381
C -0.5287522388059701 -1.936549253731343 0.464840298507462
C -1.8068522388059702 -2.121249253731343 -1.5681597014925381
C 0.6114477611940299 -1.614449253731343 -0.2582597014925381
H -0.4544522388059702 -1.954049253731343 1.5506402985074619
C -0.6479522388059701 -1.8270492537313432 -2.2998597014925384
H -2.74345223880597 -2.290549253731343 -2.092259701492538
C 0.5698477611940298 -1.5506492537313434 -1.6506597014925382
H 1.5072477611940298 -1.351949253731343 0.2991402985074618
H -0.7173522388059701 -1.7640492537313435 -3.3840597014925375
C 1.7791477611940298 -1.082849253731343 -2.4255597014925376
H 1.4739477611940297 -0.9102492537313429 -3.464259701492538
H 2.1252477611940295 -0.1337492537313434 -2.0010597014925384
C 1.3965477611940298 2.0964507462686566 1.997440298507462
H 1.51704776119403 1.8448507462686567 3.057640298507462
H 2.1256477611940294 1.5207507462686571 1.4165402985074618
C 3.94864776119403 -1.4275492537313434 -3.522959701492538
H 4.81734776119403 -2.087049253731343 -3.615159701492538
H 3.4305477611940303 -1.3641492537313429 -4.484459701492538
H 4.26984776119403 -0.441449253731343 -3.176459701492538
C 2.60904776119403 -3.4296492537313434 -2.8992597014925376
H 1.9825477611940296 -3.869549253731343 -2.119359701492538
H 2.06294776119403 -3.373349253731343 -3.845759701492538
H 3.5215477611940305 -4.019849253731343 -3.0234597014925377
C 3.7281477611940304 -2.060049253731343 -1.156659701492538
H 3.9048477611940298 -1.032549253731343 -0.8295597014925382
H 3.12924776119403 -2.623249253731343 -0.4404597014925382
H 4.68244776119403 -2.5769492537313434 -1.3005597014925383
C 3.1110477611940297 3.755250746268656 2.588740298507462
H 3.40124776119403 4.809350746268656 2.534540298507462
H 2.9823477611940303 3.461750746268656 3.634840298507462
H 3.86514776119403 3.1392507462686563 2.091540298507462
C 1.99744776119403 3.9574507462686572 0.40494029850746194
H 2.67914776119403 3.230350746268657 -0.04295970149253803
H 1.03214776119403 3.981150746268657 -0.10175970149253821
H 2.4399477611940297 4.958250746268657 0.368240298507462
C 0.7418477611940297 4.4992507462686575 2.475440298507462
H -0.18475223880597014 4.424250746268656 1.901240298507462
H 0.57844776119403 4.189650746268656 3.511940298507462
H 1.1210477611940297 5.524350746268658 2.4432402985074617
N 3.00114776119403 -2.025349253731343 -2.490159701492538
N 1.7831477611940298 3.586450746268657 1.862540298507462
C -3.55075223880597 -3.8435492537313434 0.6444402985074619
H -2.62515223880597 -2.2736492537313433 1.7424402985074618
H -4.67195223880597 -1.3478492537313436 1.5102402985074619
H -4.83415223880597 -1.6757492537313432 -0.1945597014925382
H -3.7169522388059697 0.17335074626865676 -0.900559701492538
H -3.9132522388059705 -4.043149253731343 -0.34225970149253815
H -4.35435223880597 -3.9354492537313432 1.3449402985074619
H -2.78115223880597 -4.545049253731343 0.8904402985074619
H -5.24235223880597 1.138950746268657 1.5249402985074618
H -5.92805223880597 0.6501507462686567 -0.006059701492538094
H -4.89895223880597 2.059650746268657 0.08004029850746197
O -3.705345093241152 11.10666221710864 -3.6370948491279136
H -3.9526084453606067 10.843647318411428 -4.5363452895848235
H -4.045363402995089 12.010391415165659 -3.555712849205974
O -7.054964682609395 -0.7969364095822732 11.902966250545683
H -6.612954386168019 -0.25736619851045556 12.575616413753664
H -6.3351159689649625 -1.0783881631695038 11.318530895551543
O -6.194579280710956 0.8215107756186489 6.875376397635106
H -5.245831223894623 0.9567064327592414 6.7319657429487965
H -6.246103133790613 -0.05123366302513077 7.293257219975854
O 2.4599596801358867 -7.572082420413336 2.7966262304139584
H 1.525224319693514 -7.7446062726503095 2.608284298683439
H 2.450395213093038 -7.166120279748023 3.6764359857682747
O 4.801664620741236 -1.8616339109783315 7.485220598503699
H 4.399094935108611 -1.5157439430936739 6.674501698251336
H 4.170081194172813 -2.5284632459235485 7.794094290553716
O -11.300036399821042 -3.9350905928556004 -13.908181743709832
H -11.336319862055932 -4.896493594226731 -14.02374616826528
H -10.387011876486453 -3.706001772763442 -14.13810885520047
O -1.2462353823582841 2.8475555131716987 4.765373470285735
H -0.82300596112203 3.1162445126007667 5.594620378923827
H -1.5441759315866617 3.682195711485849 4.373494518588138
O 2.914337152913258 3.560544886910658 -6.460474520492507
H 3.0673318075557376 3.6853000272219845 -7.409155788103885
H 2.99142605984032 2.6028109338678735 -6.334916088207649
O -1.4835083356824903 -1.0688591631433593 -5.901901127470651
H -2.1006574877797863 -1.044710684307411 -5.155234446859082
H -0.6149647684556442 -1.1706086141309702 -5.484479200216483
O -5.763848907300415 -1.6688652689772048 -8.698035865505219
H -5.109350292869415 -2.0984449695990097 -8.127019051898488
H -5.277388781628851 -0.9331389409122148 -9.099315394790743
C 7.9245032048154 7.415373463779073 8.031909170943017
O 7.741276849424767 7.267484019546263 9.205525408166572
O 8.107729560206034 7.5632629080118825 6.858292933719461
C 4.062911775013048 6.801104856793967 -4.15641015610969
O 3.350592955850945 7.732479595332641 -4.498343621683805
O 5.075363732196681 6.899076506042748 -3.453577278080706
O 3.8815425286556273 5.616451742386401 -4.460302537389962