104

C -5.0710522388059704 1.0783507462686561 0.47044029850746183
C -3.8153522388059704 0.1782507462686569 0.19534029850746193
C -4.11845223880597 -1.3219492537313435 0.5608402985074619
C -2.96945223880597 -2.3874492537313436 0.7034402985074619
C -2.52015223880597 0.7359507462686565 0.7384402985074618
C -2.20305223880597 0.7852507462686571 2.097440298507462
C -1.5755522388059702 1.205650746268656 -0.18965970149253808
C -0.9533522388059701 1.2695507462686564 2.508640298507462
H -2.91125223880597 0.4298507462686567 2.840840298507462
C -0.32655223880597006 1.6562507462686575 0.21554029850746192
H -1.7850522388059702 1.178550746268657 -1.2573597014925382
C 0.004447761194029898 1.6956507462686563 1.569740298507462
H -0.7158522388059702 1.2676507462686573 3.5705402985074617
H 0.3943477611940298 1.9193507462686572 -0.5551597014925382
C -1.76045223880597 -2.1592492537313435 -0.1734597014925381
C -0.5287522388059701 -1.936549253731343 0.464840298507462
C -1.8068522388059702 -2.121249253731343 -1.5681597014925381
C 0.6114477611940299 -1.614449253731343 -0.2582597014925381
H -0.4544522388059702 -1.954049253731343 1.5506402985074619
C -0.6479522388059701 -1.8270492537313432 -2.2998597014925384
H -2.74345223880597 -2.290549253731343 -2.092259701492538
C 0.5698477611940298 -1.5506492537313434 -1.6506597014925382
H 1.5072477611940298 -1.351949253731343 0.2991402985074618
H -0.7173522388059701 -1.7640492537313435 -3.3840597014925375
C 1.7791477611940298 -1.082849253731343 -2.4255597014925376
H 1.4739477611940297 -0.9102492537313429 -3.464259701492538
H 2.1252477611940295 -0.1337492537313434 -2.0010597014925384
C 1.3965477611940298 2.0964507462686566 1.997440298507462
H 1.51704776119403 1.8448507462686567 3.057640298507462
H 2.1256477611940294 1.5207507462686571 1.4165402985074618
C 3.94864776119403 -1.4275492537313434 -3.522959701492538
H 4.81734776119403 -2.087049253731343 -3.615159701492538
H 3.4305477611940303 -1.3641492537313429 -4.484459701492538
H 4.26984776119403 -0.441449253731343 -3.176459701492538
C 2.60904776119403 -3.4296492537313434 -2.8992597014925376
H 1.9825477611940296 -3.869549253731343 -2.119359701492538
H 2.06294776119403 -3.373349253731343 -3.845759701492538
H 3.5215477611940305 -4.019849253731343 -3.0234597014925377
C 3.7281477611940304 -2.060049253731343 -1.156659701492538
H 3.9048477611940298 -1.032549253731343 -0.8295597014925382
H 3.12924776119403 -2.623249253731343 -0.4404597014925382
H 4.68244776119403 -2.5769492537313434 -1.3005597014925383
C 3.1110477611940297 3.755250746268656 2.588740298507462
H 3.40124776119403 4.809350746268656 2.534540298507462
H 2.9823477611940303 3.461750746268656 3.634840298507462
H 3.86514776119403 3.1392507462686563 2.091540298507462
C 1.99744776119403 3.9574507462686572 0.40494029850746194
H 2.67914776119403 3.230350746268657 -0.04295970149253803
H 1.03214776119403 3.981150746268657 -0.10175970149253821
H 2.4399477611940297 4.958250746268657 0.368240298507462
C 0.7418477611940297 4.4992507462686575 2.475440298507462
H -0.18475223880597014 4.424250746268656 1.901240298507462
H 0.57844776119403 4.189650746268656 3.511940298507462
H 1.1210477611940297 5.524350746268658 2.4432402985074617
N 3.00114776119403 -2.025349253731343 -2.490159701492538
N 1.7831477611940298 3.586450746268657 1.862540298507462
C -3.55075223880597 -3.8435492537313434 0.6444402985074619
H -2.62515223880597 -2.2736492537313433 1.7424402985074618
H -4.67195223880597 -1.3478492537313436 1.5102402985074619
H -4.83415223880597 -1.6757492537313432 -0.1945597014925382
H -3.7169522388059697 0.17335074626865676 -0.900559701492538
H -3.9132522388059705 -4.043149253731343 -0.34225970149253815
H -4.35435223880597 -3.9354492537313432 1.3449402985074619
H -2.78115223880597 -4.545049253731343 0.8904402985074619
H -5.24235223880597 1.138950746268657 1.5249402985074618
H -5.92805223880597 0.6501507462686567 -0.006059701492538094
H -4.89895223880597 2.059650746268657 0.08004029850746197
O -14.42010364704244 -1.6812683928087362 -14.867358436629125
H -14.555656981793009 -1.0614627134564536 -15.59977469135089
H -15.212197899884977 -1.5733066541913714 -14.31973365458531
O -0.08863825124489443 -0.14006871222639194 -5.774223329286148
H -0.644036207875608 0.653822192138383 -5.78964080759191
H 0.4116389800544526 -0.09185417601930368 -6.602691792561481
O -10.240519986370266 -1.0338158749730744 15.197473595428633
H -10.045006948993638 -0.8382625605314706 14.268764324275024
H -10.511910562767513 -1.9639943295581874 15.188690545364993
O -4.736305645654509 -4.810619852085143 5.227288165133926
H -4.67666448921778 -3.8699298960374287 5.452038462018804
H -5.644205375317846 -4.91737690384508 4.9059115059367056
O 3.467175701178151 1.2583272091376356 -11.450172471395009
H 2.5918947095483804 1.0470538967551508 -11.808242478609435
H 3.942256733090436 0.4143096401537736 -11.480077331597485
O 3.1142280456959557 2.0370996360744287 -3.5689338846578007
H 2.727631431739249 1.7987488351916863 -2.712955315594436
H 3.467574389295077 2.9280226499475885 -3.426229683190934
O 1.7788945151414244 -3.3510424773623235 6.942794007912772
H 1.8511973965657353 -3.9698525058207217 7.684962316935098
H 2.6256429988723973 -3.4404035765489636 6.480199646131899
O 1.1240976698003204 -7.715035402085528 -2.016329640670971
H 2.092361562070806 -7.716277211421897 -2.0541562151231134
H 0.8749758252888531 -6.872491424417152 -2.4250103186849374
O -6.047508539886328 0.4473426089836662 7.370541161396187
H -5.724619769462752 -0.37673190834311243 6.976065067409507
H -6.159349879115195 1.0413045652262514 6.613135950379011
O 6.877386036568408 5.738212292134353 6.980331565192801
H 7.055125749449936 5.569259249302174 7.917791335360322
H 7.471400408140941 5.129471661180647 6.516064707780631
C 0.8817717827106057 0.06254406575116392 9.974939203271521
O 0.21318478874322155 -0.8275872712032142 9.535080257961244
O 1.5503587766779898 0.9526754027055417 10.414798148581797
C 3.160043948720335 -1.601980461814613 3.562495024712284
O 2.1037008088388314 -1.9357441452881399 3.048183375010014
O 4.138477769069828 -1.1536025681244122 2.954008387433999
O 3.4140831808639422 -1.660946368212001 4.771062554813362