104

C -5.0710522388059704 1.0783507462686561 0.47044029850746183
C -3.8153522388059704 0.1782507462686569 0.19534029850746193
C -4.11845223880597 -1.3219492537313435 0.5608402985074619
C -2.96945223880597 -2.3874492537313436 0.7034402985074619
C -2.52015223880597 0.7359507462686565 0.7384402985074618
C -2.20305223880597 0.7852507462686571 2.097440298507462
C -1.5755522388059702 1.205650746268656 -0.18965970149253808
C -0.9533522388059701 1.2695507462686564 2.508640298507462
H -2.91125223880597 0.4298507462686567 2.840840298507462
C -0.32655223880597006 1.6562507462686575 0.21554029850746192
H -1.7850522388059702 1.178550746268657 -1.2573597014925382
C 0.004447761194029898 1.6956507462686563 1.569740298507462
H -0.7158522388059702 1.2676507462686573 3.5705402985074617
H 0.3943477611940298 1.9193507462686572 -0.5551597014925382
C -1.76045223880597 -2.1592492537313435 -0.1734597014925381
C -0.5287522388059701 -1.936549253731343 0.464840298507462
C -1.8068522388059702 -2.121249253731343 -1.5681597014925381
C 0.6114477611940299 -1.614449253731343 -0.2582597014925381
H -0.4544522388059702 -1.954049253731343 1.5506402985074619
C -0.6479522388059701 -1.8270492537313432 -2.2998597014925384
H -2.74345223880597 -2.290549253731343 -2.092259701492538
C 0.5698477611940298 -1.5506492537313434 -1.6506597014925382
H 1.5072477611940298 -1.351949253731343 0.2991402985074618
H -0.7173522388059701 -1.7640492537313435 -3.3840597014925375
C 1.7791477611940298 -1.082849253731343 -2.4255597014925376
H 1.4739477611940297 -0.9102492537313429 -3.464259701492538
H 2.1252477611940295 -0.1337492537313434 -2.0010597014925384
C 1.3965477611940298 2.0964507462686566 1.997440298507462
H 1.51704776119403 1.8448507462686567 3.057640298507462
H 2.1256477611940294 1.5207507462686571 1.4165402985074618
C 3.94864776119403 -1.4275492537313434 -3.522959701492538
H 4.81734776119403 -2.087049253731343 -3.615159701492538
H 3.4305477611940303 -1.3641492537313429 -4.484459701492538
H 4.26984776119403 -0.441449253731343 -3.176459701492538
C 2.60904776119403 -3.4296492537313434 -2.8992597014925376
H 1.9825477611940296 -3.869549253731343 -2.119359701492538
H 2.06294776119403 -3.373349253731343 -3.845759701492538
H 3.5215477611940305 -4.019849253731343 -3.0234597014925377
C 3.7281477611940304 -2.060049253731343 -1.156659701492538
H 3.9048477611940298 -1.032549253731343 -0.8295597014925382
H 3.12924776119403 -2.623249253731343 -0.4404597014925382
H 4.68244776119403 -2.5769492537313434 -1.3005597014925383
C 3.1110477611940297 3.755250746268656 2.588740298507462
H 3.40124776119403 4.809350746268656 2.534540298507462
H 2.9823477611940303 3.461750746268656 3.634840298507462
H 3.86514776119403 3.1392507462686563 2.091540298507462
C 1.99744776119403 3.9574507462686572 0.40494029850746194
H 2.67914776119403 3.230350746268657 -0.04295970149253803
H 1.03214776119403 3.981150746268657 -0.10175970149253821
H 2.4399477611940297 4.958250746268657 0.368240298507462
C 0.7418477611940297 4.4992507462686575 2.475440298507462
H -0.18475223880597014 4.424250746268656 1.901240298507462
H 0.57844776119403 4.189650746268656 3.511940298507462
H 1.1210477611940297 5.524350746268658 2.4432402985074617
N 3.00114776119403 -2.025349253731343 -2.490159701492538
N 1.7831477611940298 3.586450746268657 1.862540298507462
C -3.55075223880597 -3.8435492537313434 0.6444402985074619
H -2.62515223880597 -2.2736492537313433 1.7424402985074618
H -4.67195223880597 -1.3478492537313436 1.5102402985074619
H -4.83415223880597 -1.6757492537313432 -0.1945597014925382
H -3.7169522388059697 0.17335074626865676 -0.900559701492538
H -3.9132522388059705 -4.043149253731343 -0.34225970149253815
H -4.35435223880597 -3.9354492537313432 1.3449402985074619
H -2.78115223880597 -4.545049253731343 0.8904402985074619
H -5.24235223880597 1.138950746268657 1.5249402985074618
H -5.92805223880597 0.6501507462686567 -0.006059701492538094
H -4.89895223880597 2.059650746268657 0.08004029850746197
O 3.0593458539896203 2.4720636058983985 -7.356939862494759
H 2.7498925403434695 2.6892323536421068 -6.464727029939181
H 2.259349647443171 2.523982458918739 -7.901249008580273
O -3.0681064817490533 -4.260034501689697 6.1389824324362365
H -3.1401123109394486 -3.8714529229653802 7.0237348690752786
H -3.986439192083277 -4.3259760118507815 5.836858791077482
O -1.7910737941107606 3.991565966849252 -4.608941672269674
H -2.2943374877200595 3.9745707401916253 -3.78105027005222
H -1.257844318193486 3.1831727282099394 -4.575346404221455
O -6.701261223959182 7.222514597120051 -7.264977200118972
H -7.356039637374502 7.338604045213893 -6.560168129329879
H -6.160492827650862 6.477818542340573 -6.961729328156101
O -4.3078674043175385 9.203349006795714 -4.2260600277149285
H -4.200267588483474 9.446209453117316 -5.15794437684037
H -3.636979812475576 8.51881976410154 -4.08361179392794
O 6.42426123585987 -12.152289353411609 -6.918534983340587
H 6.60947623553103 -12.637482036810441 -7.736612498477786
H 6.638916370544481 -12.785492709526476 -6.217151616515853
O 8.435293854941445 -4.497281492665201 -8.882813896378602
H 8.242094608467648 -4.411468132486594 -7.937151443239632
H 7.830826898147869 -5.1925810616187515 -9.18304739194117
O 4.82670653640199 2.7511695243859484 -11.289482646007537
H 3.938756366366743 2.599535877799824 -11.646580797301226
H 4.679795570962064 2.868584084692412 -10.33890759186318
O 6.273294286573885 7.976632688137651 9.129040997945589
H 6.928155368346842 7.265904607935894 9.058401656981228
H 5.648462905723098 7.7913003134193195 8.411963874697776
O -3.947083589899604 1.3910183447868087 7.953291808751117
H -4.0744705994403425 0.44291883492160544 7.798866337750927
H -4.514915554335976 1.8142531338088586 7.291928733106738
C -7.805752031688547 9.711863965021236 8.770551217768954
O -7.314372486900653 10.104475852180395 9.788991351662629
O -8.297131576476442 9.319252077862076 7.752111083875279
C -12.375085182673205 -4.866843510332303 13.020894376928675
O -12.512650756391688 -5.946965046208206 12.467551192941935
O -11.333877151772437 -4.467106227082507 13.554492919718873
O -13.255803400071414 -4.006356210094724 13.132900680647538