104

C -5.0710522388059704 1.0783507462686561 0.47044029850746183
C -3.8153522388059704 0.1782507462686569 0.19534029850746193
C -4.11845223880597 -1.3219492537313435 0.5608402985074619
C -2.96945223880597 -2.3874492537313436 0.7034402985074619
C -2.52015223880597 0.7359507462686565 0.7384402985074618
C -2.20305223880597 0.7852507462686571 2.097440298507462
C -1.5755522388059702 1.205650746268656 -0.18965970149253808
C -0.9533522388059701 1.2695507462686564 2.508640298507462
H -2.91125223880597 0.4298507462686567 2.840840298507462
C -0.32655223880597006 1.6562507462686575 0.21554029850746192
H -1.7850522388059702 1.178550746268657 -1.2573597014925382
C 0.004447761194029898 1.6956507462686563 1.569740298507462
H -0.7158522388059702 1.2676507462686573 3.5705402985074617
H 0.3943477611940298 1.9193507462686572 -0.5551597014925382
C -1.76045223880597 -2.1592492537313435 -0.1734597014925381
C -0.5287522388059701 -1.936549253731343 0.464840298507462
C -1.8068522388059702 -2.121249253731343 -1.5681597014925381
C 0.6114477611940299 -1.614449253731343 -0.2582597014925381
H -0.4544522388059702 -1.954049253731343 1.5506402985074619
C -0.6479522388059701 -1.8270492537313432 -2.2998597014925384
H -2.74345223880597 -2.290549253731343 -2.092259701492538
C 0.5698477611940298 -1.5506492537313434 -1.6506597014925382
H 1.5072477611940298 -1.351949253731343 0.2991402985074618
H -0.7173522388059701 -1.7640492537313435 -3.3840597014925375
C 1.7791477611940298 -1.082849253731343 -2.4255597014925376
H 1.4739477611940297 -0.9102492537313429 -3.464259701492538
H 2.1252477611940295 -0.1337492537313434 -2.0010597014925384
C 1.3965477611940298 2.0964507462686566 1.997440298507462
H 1.51704776119403 1.8448507462686567 3.057640298507462
H 2.1256477611940294 1.5207507462686571 1.4165402985074618
C 3.94864776119403 -1.4275492537313434 -3.522959701492538
H 4.81734776119403 -2.087049253731343 -3.615159701492538
H 3.4305477611940303 -1.3641492537313429 -4.484459701492538
H 4.26984776119403 -0.441449253731343 -3.176459701492538
C 2.60904776119403 -3.4296492537313434 -2.8992597014925376
H 1.9825477611940296 -3.869549253731343 -2.119359701492538
H 2.06294776119403 -3.373349253731343 -3.845759701492538
H 3.5215477611940305 -4.019849253731343 -3.0234597014925377
C 3.7281477611940304 -2.060049253731343 -1.156659701492538
H 3.9048477611940298 -1.032549253731343 -0.8295597014925382
H 3.12924776119403 -2.623249253731343 -0.4404597014925382
H 4.68244776119403 -2.5769492537313434 -1.3005597014925383
C 3.1110477611940297 3.755250746268656 2.588740298507462
H 3.40124776119403 4.809350746268656 2.534540298507462
H 2.9823477611940303 3.461750746268656 3.634840298507462
H 3.86514776119403 3.1392507462686563 2.091540298507462
C 1.99744776119403 3.9574507462686572 0.40494029850746194
H 2.67914776119403 3.230350746268657 -0.04295970149253803
H 1.03214776119403 3.981150746268657 -0.10175970149253821
H 2.4399477611940297 4.958250746268657 0.368240298507462
C 0.7418477611940297 4.4992507462686575 2.475440298507462
H -0.18475223880597014 4.424250746268656 1.901240298507462
H 0.57844776119403 4.189650746268656 3.511940298507462
H 1.1210477611940297 5.524350746268658 2.4432402985074617
N 3.00114776119403 -2.025349253731343 -2.490159701492538
N 1.7831477611940298 3.586450746268657 1.862540298507462
C -3.55075223880597 -3.8435492537313434 0.6444402985074619
H -2.62515223880597 -2.2736492537313433 1.7424402985074618
H -4.67195223880597 -1.3478492537313436 1.5102402985074619
H -4.83415223880597 -1.6757492537313432 -0.1945597014925382
H -3.7169522388059697 0.17335074626865676 -0.900559701492538
H -3.9132522388059705 -4.043149253731343 -0.34225970149253815
H -4.35435223880597 -3.9354492537313432 1.3449402985074619
H -2.78115223880597 -4.545049253731343 0.8904402985074619
H -5.24235223880597 1.138950746268657 1.5249402985074618
H -5.92805223880597 0.6501507462686567 -0.006059701492538094
H -4.89895223880597 2.059650746268657 0.08004029850746197
O 1.2155631936858327 -7.799553475873452 -1.6913333686856096
H 0.8685466359107323 -6.95900758524501 -2.0260414075456903
H 0.6485489460381227 -8.001030073896185 -0.931817754814712
O -1.0912227132660879 1.029300567576649 12.651147767922742
H -0.5073735589558566 0.5345938428433468 12.05671292841981
H -1.4232756600598524 0.35759286086514064 13.265567446619595
O 1.8557589143640136 7.485151907848564 -2.9681396719203237
H 1.9533093491154894 7.710836761356589 -2.0308469660504542
H 0.9236553119625692 7.234155013221885 -3.0526700071734925
O 5.423005301649276 3.6028359124759413 -7.60800844165032
H 5.881575366961581 3.624223467459568 -8.461368520744305
H 6.129060034755126 3.4303883761749634 -6.967141446570568
O 4.400900604361212 -2.4745696497435614 7.312671291089035
H 4.55470025084148 -1.975249294726244 6.496587834138751
H 5.1484418344528935 -2.232363501464205 7.87966356206695
O -5.642284892123616 7.775535401257172 -5.646602326943323
H -5.089141763102939 7.731916864990234 -4.852185900243103
H -5.016882402478959 7.64316454208316 -6.374827309958736
O 0.8930722706412189 -0.4852949710111746 -11.029940292538873
H 1.2380001221682104 -0.8068704469928735 -11.876451572669339
H 1.1072243848231575 -1.1945004894494846 -10.405337739783882
O 3.939576493815159 7.331157707044008 -5.478358011482694
H 3.9481061215072124 7.353459656175169 -6.44706706244505
H 3.1587380168302412 7.8527010557182 -5.2390971650961955
O -5.534038788201777 -2.4406888328759573 5.729144300489032
H -5.923570133741016 -3.1839810990485873 5.244634966429978
H -4.73602835878984 -2.224373536998221 5.223823618526477
O -6.794630849123313 -1.52271210566567 8.652446750139733
H -6.91760073020662 -1.4319094605749971 9.609316984231532
H -7.545913931081675 -1.0423247331316992 8.273284980741694
C 10.74048342759421 7.803615850734268 -11.326138697350366
O 10.994073336614576 7.65594602033135 -12.486614477593891
O 10.486893518573844 7.951285681137185 -10.165662917106843
C 4.989044236488771 -4.635535478717689 5.169868234120849
O 4.956009947033698 -5.7915635926298865 5.562657279493558
O 5.493219145837221 -3.688408379584183 5.784188495035654
O 4.5234049583581095 -4.23388179083754 4.097253316233617