104

C -5.0710522388059704 1.0783507462686561 0.47044029850746183
C -3.8153522388059704 0.1782507462686569 0.19534029850746193
C -4.11845223880597 -1.3219492537313435 0.5608402985074619
C -2.96945223880597 -2.3874492537313436 0.7034402985074619
C -2.52015223880597 0.7359507462686565 0.7384402985074618
C -2.20305223880597 0.7852507462686571 2.097440298507462
C -1.5755522388059702 1.205650746268656 -0.18965970149253808
C -0.9533522388059701 1.2695507462686564 2.508640298507462
H -2.91125223880597 0.4298507462686567 2.840840298507462
C -0.32655223880597006 1.6562507462686575 0.21554029850746192
H -1.7850522388059702 1.178550746268657 -1.2573597014925382
C 0.004447761194029898 1.6956507462686563 1.569740298507462
H -0.7158522388059702 1.2676507462686573 3.5705402985074617
H 0.3943477611940298 1.9193507462686572 -0.5551597014925382
C -1.76045223880597 -2.1592492537313435 -0.1734597014925381
C -0.5287522388059701 -1.936549253731343 0.464840298507462
C -1.8068522388059702 -2.121249253731343 -1.5681597014925381
C 0.6114477611940299 -1.614449253731343 -0.2582597014925381
H -0.4544522388059702 -1.954049253731343 1.5506402985074619
C -0.6479522388059701 -1.8270492537313432 -2.2998597014925384
H -2.74345223880597 -2.290549253731343 -2.092259701492538
C 0.5698477611940298 -1.5506492537313434 -1.6506597014925382
H 1.5072477611940298 -1.351949253731343 0.2991402985074618
H -0.7173522388059701 -1.7640492537313435 -3.3840597014925375
C 1.7791477611940298 -1.082849253731343 -2.4255597014925376
H 1.4739477611940297 -0.9102492537313429 -3.464259701492538
H 2.1252477611940295 -0.1337492537313434 -2.0010597014925384
C 1.3965477611940298 2.0964507462686566 1.997440298507462
H 1.51704776119403 1.8448507462686567 3.057640298507462
H 2.1256477611940294 1.5207507462686571 1.4165402985074618
C 3.94864776119403 -1.4275492537313434 -3.522959701492538
H 4.81734776119403 -2.087049253731343 -3.615159701492538
H 3.4305477611940303 -1.3641492537313429 -4.484459701492538
H 4.26984776119403 -0.441449253731343 -3.176459701492538
C 2.60904776119403 -3.4296492537313434 -2.8992597014925376
H 1.9825477611940296 -3.869549253731343 -2.119359701492538
H 2.06294776119403 -3.373349253731343 -3.845759701492538
H 3.5215477611940305 -4.019849253731343 -3.0234597014925377
C 3.7281477611940304 -2.060049253731343 -1.156659701492538
H 3.9048477611940298 -1.032549253731343 -0.8295597014925382
H 3.12924776119403 -2.623249253731343 -0.4404597014925382
H 4.68244776119403 -2.5769492537313434 -1.3005597014925383
C 3.1110477611940297 3.755250746268656 2.588740298507462
H 3.40124776119403 4.809350746268656 2.534540298507462
H 2.9823477611940303 3.461750746268656 3.634840298507462
H 3.86514776119403 3.1392507462686563 2.091540298507462
C 1.99744776119403 3.9574507462686572 0.40494029850746194
H 2.67914776119403 3.230350746268657 -0.04295970149253803
H 1.03214776119403 3.981150746268657 -0.10175970149253821
H 2.4399477611940297 4.958250746268657 0.368240298507462
C 0.7418477611940297 4.4992507462686575 2.475440298507462
H -0.18475223880597014 4.424250746268656 1.901240298507462
H 0.57844776119403 4.189650746268656 3.511940298507462
H 1.1210477611940297 5.524350746268658 2.4432402985074617
N 3.00114776119403 -2.025349253731343 -2.490159701492538
N 1.7831477611940298 3.586450746268657 1.862540298507462
C -3.55075223880597 -3.8435492537313434 0.6444402985074619
H -2.62515223880597 -2.2736492537313433 1.7424402985074618
H -4.67195223880597 -1.3478492537313436 1.5102402985074619
H -4.83415223880597 -1.6757492537313432 -0.1945597014925382
H -3.7169522388059697 0.17335074626865676 -0.900559701492538
H -3.9132522388059705 -4.043149253731343 -0.34225970149253815
H -4.35435223880597 -3.9354492537313432 1.3449402985074619
H -2.78115223880597 -4.545049253731343 0.8904402985074619
H -5.24235223880597 1.138950746268657 1.5249402985074618
H -5.92805223880597 0.6501507462686567 -0.006059701492538094
H -4.89895223880597 2.059650746268657 0.08004029850746197
O -0.45011305398557555 -4.458652675874696 -1.60608048526726
H -0.7650230307716017 -5.244600392349682 -1.1348212674387068
H -0.28612049803452644 -3.8135431880533286 -0.901877293982603
O 4.263435599942866 -8.507601525380558 5.825232118956615
H 4.060861461872382 -7.895911213440068 6.548948940485
H 5.162704944355492 -8.811314126892077 6.020258389450593
O 8.73737911752435 -4.863420267251494 -9.003134619607005
H 9.131426841024215 -4.573341334576753 -8.166744781479558
H 8.84746984257897 -4.100768488210825 -9.5906754611517
O 6.796063811897707 5.781601814430971 -7.328159896063404
H 6.414048410238464 5.8491793907574126 -6.4402044574444535
H 7.587499102651538 5.237004737515898 -7.201644487258955
O 9.05424211691094 4.520890755824303 10.576322118263054
H 8.332430848295907 3.91787185750238 10.343246899359434
H 8.60132656190294 5.3142238907229915 10.899512435883517
O 8.475406208119377 -4.957348533263672 -13.058291540815624
H 9.03354459005585 -4.800551903622915 -12.281848548418475
H 8.614361063184473 -5.894665520867353 -13.260999106790354
O 2.959750193045682 1.5785556529027842 8.732176407940246
H 2.925591465522091 1.454046892820211 7.771812879427906
H 2.087678726725367 1.9389011750450433 8.95264047894039
O 3.844469872293616 -0.12483137671431802 4.643335186051265
H 4.2446319506772365 -0.1188415076791759 5.525832658791353
H 2.898305864986053 -0.24258406077053477 4.8161643530724865
O -6.133446928812098 -7.356764448908974 -6.8030052509723005
H -5.499863900996817 -7.281383604956086 -6.073719551037513
H -6.668247124319004 -6.551785245578436 -6.732583823898544
O -3.9651445846027302 -1.5470882976304763 -4.52626800488666
H -4.335395398965032 -2.124563949963626 -3.8418678570736597
H -4.322931659297238 -1.9045340013259078 -5.352816807070308
C 7.716587837608645 0.6848173726395094 7.968681366973772
O 7.445371035759493 -0.2620413797196086 8.64891530230459
O 7.9878046394577975 1.631676124998627 7.288447431642954
C -8.590193393533811 9.629974081634618 -8.633918696471307
O -7.747004818299042 9.476838973087753 -7.76365542382107
O -8.99733749475717 8.7449058628855 -9.395180407776483
O -9.166832592642344 10.69372488359891 -8.888024677848758