104

C -5.0710522388059704 1.0783507462686561 0.47044029850746183
C -3.8153522388059704 0.1782507462686569 0.19534029850746193
C -4.11845223880597 -1.3219492537313435 0.5608402985074619
C -2.96945223880597 -2.3874492537313436 0.7034402985074619
C -2.52015223880597 0.7359507462686565 0.7384402985074618
C -2.20305223880597 0.7852507462686571 2.097440298507462
C -1.5755522388059702 1.205650746268656 -0.18965970149253808
C -0.9533522388059701 1.2695507462686564 2.508640298507462
H -2.91125223880597 0.4298507462686567 2.840840298507462
C -0.32655223880597006 1.6562507462686575 0.21554029850746192
H -1.7850522388059702 1.178550746268657 -1.2573597014925382
C 0.004447761194029898 1.6956507462686563 1.569740298507462
H -0.7158522388059702 1.2676507462686573 3.5705402985074617
H 0.3943477611940298 1.9193507462686572 -0.5551597014925382
C -1.76045223880597 -2.1592492537313435 -0.1734597014925381
C -0.5287522388059701 -1.936549253731343 0.464840298507462
C -1.8068522388059702 -2.121249253731343 -1.5681597014925381
C 0.6114477611940299 -1.614449253731343 -0.2582597014925381
H -0.4544522388059702 -1.954049253731343 1.5506402985074619
C -0.6479522388059701 -1.8270492537313432 -2.2998597014925384
H -2.74345223880597 -2.290549253731343 -2.092259701492538
C 0.5698477611940298 -1.5506492537313434 -1.6506597014925382
H 1.5072477611940298 -1.351949253731343 0.2991402985074618
H -0.7173522388059701 -1.7640492537313435 -3.3840597014925375
C 1.7791477611940298 -1.082849253731343 -2.4255597014925376
H 1.4739477611940297 -0.9102492537313429 -3.464259701492538
H 2.1252477611940295 -0.1337492537313434 -2.0010597014925384
C 1.3965477611940298 2.0964507462686566 1.997440298507462
H 1.51704776119403 1.8448507462686567 3.057640298507462
H 2.1256477611940294 1.5207507462686571 1.4165402985074618
C 3.94864776119403 -1.4275492537313434 -3.522959701492538
H 4.81734776119403 -2.087049253731343 -3.615159701492538
H 3.4305477611940303 -1.3641492537313429 -4.484459701492538
H 4.26984776119403 -0.441449253731343 -3.176459701492538
C 2.60904776119403 -3.4296492537313434 -2.8992597014925376
H 1.9825477611940296 -3.869549253731343 -2.119359701492538
H 2.06294776119403 -3.373349253731343 -3.845759701492538
H 3.5215477611940305 -4.019849253731343 -3.0234597014925377
C 3.7281477611940304 -2.060049253731343 -1.156659701492538
H 3.9048477611940298 -1.032549253731343 -0.8295597014925382
H 3.12924776119403 -2.623249253731343 -0.4404597014925382
H 4.68244776119403 -2.5769492537313434 -1.3005597014925383
C 3.1110477611940297 3.755250746268656 2.588740298507462
H 3.40124776119403 4.809350746268656 2.534540298507462
H 2.9823477611940303 3.461750746268656 3.634840298507462
H 3.86514776119403 3.1392507462686563 2.091540298507462
C 1.99744776119403 3.9574507462686572 0.40494029850746194
H 2.67914776119403 3.230350746268657 -0.04295970149253803
H 1.03214776119403 3.981150746268657 -0.10175970149253821
H 2.4399477611940297 4.958250746268657 0.368240298507462
C 0.7418477611940297 4.4992507462686575 2.475440298507462
H -0.18475223880597014 4.424250746268656 1.901240298507462
H 0.57844776119403 4.189650746268656 3.511940298507462
H 1.1210477611940297 5.524350746268658 2.4432402985074617
N 3.00114776119403 -2.025349253731343 -2.490159701492538
N 1.7831477611940298 3.586450746268657 1.862540298507462
C -3.55075223880597 -3.8435492537313434 0.6444402985074619
H -2.62515223880597 -2.2736492537313433 1.7424402985074618
H -4.67195223880597 -1.3478492537313436 1.5102402985074619
H -4.83415223880597 -1.6757492537313432 -0.1945597014925382
H -3.7169522388059697 0.17335074626865676 -0.900559701492538
H -3.9132522388059705 -4.043149253731343 -0.34225970149253815
H -4.35435223880597 -3.9354492537313432 1.3449402985074619
H -2.78115223880597 -4.545049253731343 0.8904402985074619
H -5.24235223880597 1.138950746268657 1.5249402985074618
H -5.92805223880597 0.6501507462686567 -0.006059701492538094
H -4.89895223880597 2.059650746268657 0.08004029850746197
O 7.023530376859529 -5.6102113654803265 10.202869581407704
H 7.856712636679595 -5.174674980144898 10.437566696579745
H 7.271301506197933 -6.538963154786273 10.080429695637696
O -2.1485096704821514 9.174892632776167 -2.412468672780341
H -3.0870503852154174 8.962352059528806 -2.5262016425457285
H -1.7721698648388386 9.053534213268396 -3.297116867829044
O -0.6066333706902287 -2.227645237284343 3.940408142206518
H -1.1279834098951744 -3.0396514437987 3.852048569419149
H -1.0917287219091742 -1.7085817784646098 4.599360014685732
O 0.34592088425211753 -4.679764144025253 0.7203261270527719
H 0.17769491749778643 -4.724859784559643 -0.23289670325206557
H 0.8635622413060904 -5.477905090295309 0.9046638596374498
O -4.951590659845031 -0.26618596088438506 -4.91815218258516
H -4.945849576785825 -1.1844609408531648 -4.60878919509531
H -4.102158939974427 -0.16741406961692867 -5.373862409673731
O -7.984408046545685 8.565407015547011 8.042958118431113
H -7.1904076567007476 8.010020582964636 8.034203215261444
H -7.678752889079491 9.416249337390518 7.69424016309433
O -0.417759046837221 -0.4145025816091474 6.233011498773939
H -0.8292938185347747 -0.19161433205735312 7.08149680612792
H 0.0261481869757903 -1.2589358655549576 6.402837118257496
O -5.95171641950041 4.9357762792167845 -6.262178241967229
H -5.900321481217632 5.0014674548881555 -5.296771288057209
H -5.035388586699323 4.778374383164259 -6.535179872462605
O 6.162483488088215 -0.27745517614706006 11.060686884264115
H 6.638065543299137 0.3479839578671396 11.627797945084591
H 5.878075748603729 0.2601706529490709 10.306344356025106
O -1.0496728491379848 -0.3529224537084827 -12.663402945184117
H -0.6798860894904178 -0.8104985481588498 -11.893435915320564
H -0.2736461667441816 -0.13537871782230326 -13.201379947935678
C -8.974472970563603 -6.047000790829048 -9.951717994357802
O -8.765099861593818 -7.07166056343284 -9.369434979881275
O -9.183846079533389 -5.022341018225256 -10.534001008834329
C -7.26453960838676 6.597176638599449 -11.1435168780332
O -6.08456536974433 6.420980913932312 -11.405034298770786
O -8.069790087594397 5.706427070977185 -10.848952220247138
O -7.836011013028998 7.693514808719144 -11.132960609050869