104

C -5.0710522388059704 1.0783507462686561 0.47044029850746183
C -3.8153522388059704 0.1782507462686569 0.19534029850746193
C -4.11845223880597 -1.3219492537313435 0.5608402985074619
C -2.96945223880597 -2.3874492537313436 0.7034402985074619
C -2.52015223880597 0.7359507462686565 0.7384402985074618
C -2.20305223880597 0.7852507462686571 2.097440298507462
C -1.5755522388059702 1.205650746268656 -0.18965970149253808
C -0.9533522388059701 1.2695507462686564 2.508640298507462
H -2.91125223880597 0.4298507462686567 2.840840298507462
C -0.32655223880597006 1.6562507462686575 0.21554029850746192
H -1.7850522388059702 1.178550746268657 -1.2573597014925382
C 0.004447761194029898 1.6956507462686563 1.569740298507462
H -0.7158522388059702 1.2676507462686573 3.5705402985074617
H 0.3943477611940298 1.9193507462686572 -0.5551597014925382
C -1.76045223880597 -2.1592492537313435 -0.1734597014925381
C -0.5287522388059701 -1.936549253731343 0.464840298507462
C -1.8068522388059702 -2.121249253731343 -1.5681597014925381
C 0.6114477611940299 -1.614449253731343 -0.2582597014925381
H -0.4544522388059702 -1.954049253731343 1.5506402985074619
C -0.6479522388059701 -1.8270492537313432 -2.2998597014925384
H -2.74345223880597 -2.290549253731343 -2.092259701492538
C 0.5698477611940298 -1.5506492537313434 -1.6506597014925382
H 1.5072477611940298 -1.351949253731343 0.2991402985074618
H -0.7173522388059701 -1.7640492537313435 -3.3840597014925375
C 1.7791477611940298 -1.082849253731343 -2.4255597014925376
H 1.4739477611940297 -0.9102492537313429 -3.464259701492538
H 2.1252477611940295 -0.1337492537313434 -2.0010597014925384
C 1.3965477611940298 2.0964507462686566 1.997440298507462
H 1.51704776119403 1.8448507462686567 3.057640298507462
H 2.1256477611940294 1.5207507462686571 1.4165402985074618
C 3.94864776119403 -1.4275492537313434 -3.522959701492538
H 4.81734776119403 -2.087049253731343 -3.615159701492538
H 3.4305477611940303 -1.3641492537313429 -4.484459701492538
H 4.26984776119403 -0.441449253731343 -3.176459701492538
C 2.60904776119403 -3.4296492537313434 -2.8992597014925376
H 1.9825477611940296 -3.869549253731343 -2.119359701492538
H 2.06294776119403 -3.373349253731343 -3.845759701492538
H 3.5215477611940305 -4.019849253731343 -3.0234597014925377
C 3.7281477611940304 -2.060049253731343 -1.156659701492538
H 3.9048477611940298 -1.032549253731343 -0.8295597014925382
H 3.12924776119403 -2.623249253731343 -0.4404597014925382
H 4.68244776119403 -2.5769492537313434 -1.3005597014925383
C 3.1110477611940297 3.755250746268656 2.588740298507462
H 3.40124776119403 4.809350746268656 2.534540298507462
H 2.9823477611940303 3.461750746268656 3.634840298507462
H 3.86514776119403 3.1392507462686563 2.091540298507462
C 1.99744776119403 3.9574507462686572 0.40494029850746194
H 2.67914776119403 3.230350746268657 -0.04295970149253803
H 1.03214776119403 3.981150746268657 -0.10175970149253821
H 2.4399477611940297 4.958250746268657 0.368240298507462
C 0.7418477611940297 4.4992507462686575 2.475440298507462
H -0.18475223880597014 4.424250746268656 1.901240298507462
H 0.57844776119403 4.189650746268656 3.511940298507462
H 1.1210477611940297 5.524350746268658 2.4432402985074617
N 3.00114776119403 -2.025349253731343 -2.490159701492538
N 1.7831477611940298 3.586450746268657 1.862540298507462
C -3.55075223880597 -3.8435492537313434 0.6444402985074619
H -2.62515223880597 -2.2736492537313433 1.7424402985074618
H -4.67195223880597 -1.3478492537313436 1.5102402985074619
H -4.83415223880597 -1.6757492537313432 -0.1945597014925382
H -3.7169522388059697 0.17335074626865676 -0.900559701492538
H -3.9132522388059705 -4.043149253731343 -0.34225970149253815
H -4.35435223880597 -3.9354492537313432 1.3449402985074619
H -2.78115223880597 -4.545049253731343 0.8904402985074619
H -5.24235223880597 1.138950746268657 1.5249402985074618
H -5.92805223880597 0.6501507462686567 -0.006059701492538094
H -4.89895223880597 2.059650746268657 0.08004029850746197
O -5.315073773080659 2.972729312778025 9.188627854116339
H -5.079740137157581 3.889444796586761 8.980738079359279
H -4.5479374168438 2.639322683481341 9.677814704696623
O 7.052046796984876 -1.7092412695755062 -6.594912595674579
H 6.654653264933754 -2.0379919166169023 -7.41525932094006
H 6.65623674609236 -0.8325212470273728 -6.478043652085345
O -3.3704485990551194 -4.321201210550429 6.5657694463036895
H -4.203661174472418 -4.002167043446347 6.187693579199377
H -3.1618646531164343 -3.6717502707369993 7.2540049863422
O -3.1548383418643726 -1.7512587432064086 -4.260712240791367
H -3.4504089725420943 -1.8109633039464461 -5.181603507232533
H -3.8959133758129822 -2.1145924201590147 -3.753013139403384
O 8.331050415319698 -2.7786498061272633 9.25500663241419
H 8.569121457275282 -2.5164395546051397 10.156968560590148
H 7.412409522970393 -2.4851107100970897 9.160689856040849
O 5.277991004577765 -8.945399177104674 7.493287924442138
H 5.356744671536001 -9.153555378821835 6.550188665335592
H 4.901514273391266 -9.750200473598195 7.879968785537535
O 0.7694281545807067 -8.307631650395543 1.07005825468276
H 0.4214767171112984 -8.93181195088041 0.4156148984252501
H 0.7729159430301257 -8.813044272079487 1.896803597260687
O 0.7629075269301878 -1.0201220167497085 -6.249605449084543
H 0.35675680697307266 -0.504857912722912 -5.536505278926254
H 1.705752083600712 -1.026459875329087 -6.026074874430001
O -2.7136315274084173 -8.996728163156423 -3.0453567640483086
H -2.9686000932433774 -8.47261541156909 -2.2712351902889805
H -2.449116176395097 -8.333392415147994 -3.700321846165208
O 2.5746450009247246 -1.1068579644125522 10.458887376339781
H 1.7872406208900031 -1.228838028796802 9.907450559383433
H 3.3010329102740945 -1.0489811605179515 9.820159871826318
C -6.408515839672658 5.787091170613285 -8.163918401118698
O -6.7621971790267645 5.944368988845568 -7.0312262737580555
O -6.0548345003185515 5.629813352381001 -9.296610528479341
C 1.9505702021519187 1.4877676023641224 -7.8356581028905365
O 2.3999766503556645 0.9326258889468337 -6.8448871803574765
O 0.7541807126196722 1.5372914760541856 -8.143604590728119
O 2.622632180203307 2.0859538014203696 -8.683687791826188