104

C -5.0710522388059704 1.0783507462686561 0.47044029850746183
C -3.8153522388059704 0.1782507462686569 0.19534029850746193
C -4.11845223880597 -1.3219492537313435 0.5608402985074619
C -2.96945223880597 -2.3874492537313436 0.7034402985074619
C -2.52015223880597 0.7359507462686565 0.7384402985074618
C -2.20305223880597 0.7852507462686571 2.097440298507462
C -1.5755522388059702 1.205650746268656 -0.18965970149253808
C -0.9533522388059701 1.2695507462686564 2.508640298507462
H -2.91125223880597 0.4298507462686567 2.840840298507462
C -0.32655223880597006 1.6562507462686575 0.21554029850746192
H -1.7850522388059702 1.178550746268657 -1.2573597014925382
C 0.004447761194029898 1.6956507462686563 1.569740298507462
H -0.7158522388059702 1.2676507462686573 3.5705402985074617
H 0.3943477611940298 1.9193507462686572 -0.5551597014925382
C -1.76045223880597 -2.1592492537313435 -0.1734597014925381
C -0.5287522388059701 -1.936549253731343 0.464840298507462
C -1.8068522388059702 -2.121249253731343 -1.5681597014925381
C 0.6114477611940299 -1.614449253731343 -0.2582597014925381
H -0.4544522388059702 -1.954049253731343 1.5506402985074619
C -0.6479522388059701 -1.8270492537313432 -2.2998597014925384
H -2.74345223880597 -2.290549253731343 -2.092259701492538
C 0.5698477611940298 -1.5506492537313434 -1.6506597014925382
H 1.5072477611940298 -1.351949253731343 0.2991402985074618
H -0.7173522388059701 -1.7640492537313435 -3.3840597014925375
C 1.7791477611940298 -1.082849253731343 -2.4255597014925376
H 1.4739477611940297 -0.9102492537313429 -3.464259701492538
H 2.1252477611940295 -0.1337492537313434 -2.0010597014925384
C 1.3965477611940298 2.0964507462686566 1.997440298507462
H 1.51704776119403 1.8448507462686567 3.057640298507462
H 2.1256477611940294 1.5207507462686571 1.4165402985074618
C 3.94864776119403 -1.4275492537313434 -3.522959701492538
H 4.81734776119403 -2.087049253731343 -3.615159701492538
H 3.4305477611940303 -1.3641492537313429 -4.484459701492538
H 4.26984776119403 -0.441449253731343 -3.176459701492538
C 2.60904776119403 -3.4296492537313434 -2.8992597014925376
H 1.9825477611940296 -3.869549253731343 -2.119359701492538
H 2.06294776119403 -3.373349253731343 -3.845759701492538
H 3.5215477611940305 -4.019849253731343 -3.0234597014925377
C 3.7281477611940304 -2.060049253731343 -1.156659701492538
H 3.9048477611940298 -1.032549253731343 -0.8295597014925382
H 3.12924776119403 -2.623249253731343 -0.4404597014925382
H 4.68244776119403 -2.5769492537313434 -1.3005597014925383
C 3.1110477611940297 3.755250746268656 2.588740298507462
H 3.40124776119403 4.809350746268656 2.534540298507462
H 2.9823477611940303 3.461750746268656 3.634840298507462
H 3.86514776119403 3.1392507462686563 2.091540298507462
C 1.99744776119403 3.9574507462686572 0.40494029850746194
H 2.67914776119403 3.230350746268657 -0.04295970149253803
H 1.03214776119403 3.981150746268657 -0.10175970149253821
H 2.4399477611940297 4.958250746268657 0.368240298507462
C 0.7418477611940297 4.4992507462686575 2.475440298507462
H -0.18475223880597014 4.424250746268656 1.901240298507462
H 0.57844776119403 4.189650746268656 3.511940298507462
H 1.1210477611940297 5.524350746268658 2.4432402985074617
N 3.00114776119403 -2.025349253731343 -2.490159701492538
N 1.7831477611940298 3.586450746268657 1.862540298507462
C -3.55075223880597 -3.8435492537313434 0.6444402985074619
H -2.62515223880597 -2.2736492537313433 1.7424402985074618
H -4.67195223880597 -1.3478492537313436 1.5102402985074619
H -4.83415223880597 -1.6757492537313432 -0.1945597014925382
H -3.7169522388059697 0.17335074626865676 -0.900559701492538
H -3.9132522388059705 -4.043149253731343 -0.34225970149253815
H -4.35435223880597 -3.9354492537313432 1.3449402985074619
H -2.78115223880597 -4.545049253731343 0.8904402985074619
H -5.24235223880597 1.138950746268657 1.5249402985074618
H -5.92805223880597 0.6501507462686567 -0.006059701492538094
H -4.89895223880597 2.059650746268657 0.08004029850746197
O -6.110662380595249 -8.676467024996922 -6.725594561509051
H -5.729190688583588 -8.20917878186649 -5.967248728181119
H -5.347065416939285 -8.868696605227697 -7.290332916749502
O 10.731057941476056 -5.854157885287953 -12.653633690597198
H 11.412025752866388 -5.171751154542615 -12.55580092214142
H 10.896093074766885 -6.4573228272224235 -11.913419260920996
O -2.2020108902488222 10.57059709565567 -2.693296529357978
H -2.902183763303343 11.238205139104544 -2.6382983015597743
H -1.9868394421616027 10.380300323752738 -1.7678505121147394
O -12.089285510661085 -3.4013765640278364 -14.606632209435112
H -12.178288555343752 -2.5226200283863154 -15.005170496183737
H -12.852689629816453 -3.467807655576052 -14.01353609139662
O 1.6121727819074285 -2.790695305591132 3.9888066987335216
H 1.545165781445695 -3.5835235725476533 3.435723741209208
H 1.7169616128420402 -3.139815491504205 4.886635380052724
O -3.6892775982889816 5.612854002935393 4.091307951150153
H -4.193109815166612 6.291942798186376 4.564550872175646
H -4.365697995741067 5.110673203645382 3.6125263359692776
O -0.6875737435251936 -6.094508734070283 1.885110323013207
H -1.6142364503027486 -6.077910245004608 1.6022886920716664
H -0.578815822568461 -5.268064165262972 2.379198405866929
O 6.286375078088639 -3.9293430891777126 8.899216747781107
H 6.478305995688151 -3.970271342722636 7.9502938015777955
H 5.888792014601808 -3.0539645316008626 9.020055619271611
O -6.527763859719498 -1.8244587018005765 -6.88362908376536
H -6.258138832304122 -2.081746504702574 -5.989161259878372
H -7.191102924870681 -2.487243449765418 -7.1278822450745505
O 3.011499663533276 -0.7025412978637265 10.512079048554066
H 3.659743343821273 -1.000944350921615 9.856561614924415
H 3.2536049965708282 -1.1847065689095124 11.316978795983594
C -4.454854560245665 4.395963526585556 8.541551147289912
O -3.814447383352525 4.149121649169995 9.522247834669717
O -5.095261737138804 4.642805404001116 7.560854459910108
C -3.1996933840571087 -1.6004562702843346 8.882024780781299
O -4.006370317507248 -1.5056233669056467 7.9698545422423255
O -2.6025481762145475 -0.6533477523975676 9.40646211754995
O -2.8556578622234396 -2.6582242311071216 9.42185335095283