104

C -5.0710522388059704 1.0783507462686561 0.47044029850746183
C -3.8153522388059704 0.1782507462686569 0.19534029850746193
C -4.11845223880597 -1.3219492537313435 0.5608402985074619
C -2.96945223880597 -2.3874492537313436 0.7034402985074619
C -2.52015223880597 0.7359507462686565 0.7384402985074618
C -2.20305223880597 0.7852507462686571 2.097440298507462
C -1.5755522388059702 1.205650746268656 -0.18965970149253808
C -0.9533522388059701 1.2695507462686564 2.508640298507462
H -2.91125223880597 0.4298507462686567 2.840840298507462
C -0.32655223880597006 1.6562507462686575 0.21554029850746192
H -1.7850522388059702 1.178550746268657 -1.2573597014925382
C 0.004447761194029898 1.6956507462686563 1.569740298507462
H -0.7158522388059702 1.2676507462686573 3.5705402985074617
H 0.3943477611940298 1.9193507462686572 -0.5551597014925382
C -1.76045223880597 -2.1592492537313435 -0.1734597014925381
C -0.5287522388059701 -1.936549253731343 0.464840298507462
C -1.8068522388059702 -2.121249253731343 -1.5681597014925381
C 0.6114477611940299 -1.614449253731343 -0.2582597014925381
H -0.4544522388059702 -1.954049253731343 1.5506402985074619
C -0.6479522388059701 -1.8270492537313432 -2.2998597014925384
H -2.74345223880597 -2.290549253731343 -2.092259701492538
C 0.5698477611940298 -1.5506492537313434 -1.6506597014925382
H 1.5072477611940298 -1.351949253731343 0.2991402985074618
H -0.7173522388059701 -1.7640492537313435 -3.3840597014925375
C 1.7791477611940298 -1.082849253731343 -2.4255597014925376
H 1.4739477611940297 -0.9102492537313429 -3.464259701492538
H 2.1252477611940295 -0.1337492537313434 -2.0010597014925384
C 1.3965477611940298 2.0964507462686566 1.997440298507462
H 1.51704776119403 1.8448507462686567 3.057640298507462
H 2.1256477611940294 1.5207507462686571 1.4165402985074618
C 3.94864776119403 -1.4275492537313434 -3.522959701492538
H 4.81734776119403 -2.087049253731343 -3.615159701492538
H 3.4305477611940303 -1.3641492537313429 -4.484459701492538
H 4.26984776119403 -0.441449253731343 -3.176459701492538
C 2.60904776119403 -3.4296492537313434 -2.8992597014925376
H 1.9825477611940296 -3.869549253731343 -2.119359701492538
H 2.06294776119403 -3.373349253731343 -3.845759701492538
H 3.5215477611940305 -4.019849253731343 -3.0234597014925377
C 3.7281477611940304 -2.060049253731343 -1.156659701492538
H 3.9048477611940298 -1.032549253731343 -0.8295597014925382
H 3.12924776119403 -2.623249253731343 -0.4404597014925382
H 4.68244776119403 -2.5769492537313434 -1.3005597014925383
C 3.1110477611940297 3.755250746268656 2.588740298507462
H 3.40124776119403 4.809350746268656 2.534540298507462
H 2.9823477611940303 3.461750746268656 3.634840298507462
H 3.86514776119403 3.1392507462686563 2.091540298507462
C 1.99744776119403 3.9574507462686572 0.40494029850746194
H 2.67914776119403 3.230350746268657 -0.04295970149253803
H 1.03214776119403 3.981150746268657 -0.10175970149253821
H 2.4399477611940297 4.958250746268657 0.368240298507462
C 0.7418477611940297 4.4992507462686575 2.475440298507462
H -0.18475223880597014 4.424250746268656 1.901240298507462
H 0.57844776119403 4.189650746268656 3.511940298507462
H 1.1210477611940297 5.524350746268658 2.4432402985074617
N 3.00114776119403 -2.025349253731343 -2.490159701492538
N 1.7831477611940298 3.586450746268657 1.862540298507462
C -3.55075223880597 -3.8435492537313434 0.6444402985074619
H -2.62515223880597 -2.2736492537313433 1.7424402985074618
H -4.67195223880597 -1.3478492537313436 1.5102402985074619
H -4.83415223880597 -1.6757492537313432 -0.1945597014925382
H -3.7169522388059697 0.17335074626865676 -0.900559701492538
H -3.9132522388059705 -4.043149253731343 -0.34225970149253815
H -4.35435223880597 -3.9354492537313432 1.3449402985074619
H -2.78115223880597 -4.545049253731343 0.8904402985074619
H -5.24235223880597 1.138950746268657 1.5249402985074618
H -5.92805223880597 0.6501507462686567 -0.006059701492538094
H -4.89895223880597 2.059650746268657 0.08004029850746197
O 4.159803657711202 7.613577098600546 -6.703573638829512
H 4.3503398661926695 7.382054291592876 -5.782128849385892
H 3.287224518427716 8.033090456140794 -6.66387309937981
O -1.1552185167391964 -0.6784450618955556 -5.594112995953378
H -0.3089460261218743 -0.3012975996488385 -5.310299641360581
H -1.0045941164096077 -1.6353817724332573 -5.57073851519692
O -2.8743442806248094 -7.9293796207652605 -3.479545985548083
H -2.5610776395389703 -8.679295522307825 -4.007236717981769
H -2.518270998682867 -7.154457490650834 -3.939621473317223
O -5.375195841393899 3.9571987524510917 -5.79040480408144
H -4.4251058281804445 4.123959243382091 -5.882531143184384
H -5.421800061274531 3.1851182907514004 -5.206725310137282
O 3.2131389666408614 1.082245444792349 -10.3184566740829
H 3.0172448521699096 1.1793390556917314 -11.262472396164984
H 2.5999179075721663 0.3930889052659669 -10.021833780423812
O -0.594282775135355 -10.737189163346883 -1.2294765159917822
H -1.2981760249147785 -10.169130492100512 -0.8818977539294676
H -0.5468230828852378 -11.466761088722718 -0.5935250024194665
O 3.341460038906414 -12.133889331113576 3.0394421401496823
H 2.915976174732961 -11.263769000795003 3.0681030716475886
H 3.3170194734640672 -12.436805268919345 3.9595543820441748
O -12.214995547085973 6.543833615683867 -12.266874912891765
H -12.236797105299148 6.465647095575534 -13.232472612263935
H -12.88060767713603 5.907395898202302 -11.965429281977865
O -3.4690447790674326 2.2863220080668842 -5.3627894301992365
H -3.295420415735884 2.2898227595505922 -6.316104531357697
H -2.664547069033297 2.6643291442841246 -4.976970840939114
O -4.805744309004772 14.4299383546235 -4.780510185342941
H -4.581338957259877 14.024847170906765 -5.631692144669632
H -5.13664826611378 13.690198304314576 -4.249238904885819
C 5.659729882689932 7.171314195329632 9.292809188388148
O 4.674209467322651 7.738467582845378 8.918770683386702
O 6.6452502980572135 6.604160807813887 9.666847693389593
C -7.282024263898949 4.900948282861323 7.514324806543048
O -7.457336166745673 4.890461634956566 8.723014702891975
O -6.39708698923366 4.277222253433231 6.917262561695965
O -7.9624290582406525 5.536918348038069 6.701158294421507