104

C -5.0710522388059704 1.0783507462686561 0.47044029850746183
C -3.8153522388059704 0.1782507462686569 0.19534029850746193
C -4.11845223880597 -1.3219492537313435 0.5608402985074619
C -2.96945223880597 -2.3874492537313436 0.7034402985074619
C -2.52015223880597 0.7359507462686565 0.7384402985074618
C -2.20305223880597 0.7852507462686571 2.097440298507462
C -1.5755522388059702 1.205650746268656 -0.18965970149253808
C -0.9533522388059701 1.2695507462686564 2.508640298507462
H -2.91125223880597 0.4298507462686567 2.840840298507462
C -0.32655223880597006 1.6562507462686575 0.21554029850746192
H -1.7850522388059702 1.178550746268657 -1.2573597014925382
C 0.004447761194029898 1.6956507462686563 1.569740298507462
H -0.7158522388059702 1.2676507462686573 3.5705402985074617
H 0.3943477611940298 1.9193507462686572 -0.5551597014925382
C -1.76045223880597 -2.1592492537313435 -0.1734597014925381
C -0.5287522388059701 -1.936549253731343 0.464840298507462
C -1.8068522388059702 -2.121249253731343 -1.5681597014925381
C 0.6114477611940299 -1.614449253731343 -0.2582597014925381
H -0.4544522388059702 -1.954049253731343 1.5506402985074619
C -0.6479522388059701 -1.8270492537313432 -2.2998597014925384
H -2.74345223880597 -2.290549253731343 -2.092259701492538
C 0.5698477611940298 -1.5506492537313434 -1.6506597014925382
H 1.5072477611940298 -1.351949253731343 0.2991402985074618
H -0.7173522388059701 -1.7640492537313435 -3.3840597014925375
C 1.7791477611940298 -1.082849253731343 -2.4255597014925376
H 1.4739477611940297 -0.9102492537313429 -3.464259701492538
H 2.1252477611940295 -0.1337492537313434 -2.0010597014925384
C 1.3965477611940298 2.0964507462686566 1.997440298507462
H 1.51704776119403 1.8448507462686567 3.057640298507462
H 2.1256477611940294 1.5207507462686571 1.4165402985074618
C 3.94864776119403 -1.4275492537313434 -3.522959701492538
H 4.81734776119403 -2.087049253731343 -3.615159701492538
H 3.4305477611940303 -1.3641492537313429 -4.484459701492538
H 4.26984776119403 -0.441449253731343 -3.176459701492538
C 2.60904776119403 -3.4296492537313434 -2.8992597014925376
H 1.9825477611940296 -3.869549253731343 -2.119359701492538
H 2.06294776119403 -3.373349253731343 -3.845759701492538
H 3.5215477611940305 -4.019849253731343 -3.0234597014925377
C 3.7281477611940304 -2.060049253731343 -1.156659701492538
H 3.9048477611940298 -1.032549253731343 -0.8295597014925382
H 3.12924776119403 -2.623249253731343 -0.4404597014925382
H 4.68244776119403 -2.5769492537313434 -1.3005597014925383
C 3.1110477611940297 3.755250746268656 2.588740298507462
H 3.40124776119403 4.809350746268656 2.534540298507462
H 2.9823477611940303 3.461750746268656 3.634840298507462
H 3.86514776119403 3.1392507462686563 2.091540298507462
C 1.99744776119403 3.9574507462686572 0.40494029850746194
H 2.67914776119403 3.230350746268657 -0.04295970149253803
H 1.03214776119403 3.981150746268657 -0.10175970149253821
H 2.4399477611940297 4.958250746268657 0.368240298507462
C 0.7418477611940297 4.4992507462686575 2.475440298507462
H -0.18475223880597014 4.424250746268656 1.901240298507462
H 0.57844776119403 4.189650746268656 3.511940298507462
H 1.1210477611940297 5.524350746268658 2.4432402985074617
N 3.00114776119403 -2.025349253731343 -2.490159701492538
N 1.7831477611940298 3.586450746268657 1.862540298507462
C -3.55075223880597 -3.8435492537313434 0.6444402985074619
H -2.62515223880597 -2.2736492537313433 1.7424402985074618
H -4.67195223880597 -1.3478492537313436 1.5102402985074619
H -4.83415223880597 -1.6757492537313432 -0.1945597014925382
H -3.7169522388059697 0.17335074626865676 -0.900559701492538
H -3.9132522388059705 -4.043149253731343 -0.34225970149253815
H -4.35435223880597 -3.9354492537313432 1.3449402985074619
H -2.78115223880597 -4.545049253731343 0.8904402985074619
H -5.24235223880597 1.138950746268657 1.5249402985074618
H -5.92805223880597 0.6501507462686567 -0.006059701492538094
H -4.89895223880597 2.059650746268657 0.08004029850746197
O -2.4346858516290073 5.536831299761602 -4.798841581076346
H -2.3859105637237046 5.518014893390695 -5.766433577240556
H -1.5159601816967512 5.415284595597625 -4.515766526692528
O 1.5984828285588746 -3.457210529246578 2.15633553309996
H 1.3278188134669997 -3.535883427340582 1.2292330992018297
H 0.9853024296497527 -4.0395969494510915 2.629408255051904
O 1.3847358516206612 13.544660969839432 1.4219072105731532
H 1.84789195768097 14.247428553683495 0.9417285964960236
H 1.0339131887770991 13.990062264228321 2.2077208592787834
O -13.238143918596434 6.153890644908252 -13.37658668073778
H -13.083627073905145 7.046023776171658 -13.031347086095453
H -13.884063102239066 6.286325585924988 -14.086665084085134
O -9.699053397622215 -10.935200951734943 9.774866656967063
H -9.740332115379651 -10.961558303667275 10.742631460191182
H -10.442377796991915 -11.489618020410845 9.493703900609653
O 13.906559934739375 3.0159351260153104 -14.844173951279698
H 13.898758610114697 2.1983079572681166 -14.324181346370215
H 14.848538040968482 3.197070609963985 -14.98139322157255
O -11.917708026996753 -3.9539452306848957 -12.435403887130661
H -11.24694847103914 -4.64559910978059 -12.332137791419504
H -12.676253797771668 -4.286574485014593 -11.93248437358644
O 4.2337794349681195 -0.20314538879930266 -7.763916191387199
H 4.233371849338885 -0.16676204317304344 -8.732236098718962
H 4.406058773762812 0.7118265565543986 -7.495386653086238
O 8.819405227443125 2.7821321926357987 9.875364466169193
H 8.031367296527955 2.911382720415374 9.326494830091882
H 9.554270905304687 3.015565674906074 9.28847164021522
O -7.691000860618134 -0.7945380456967681 -13.252672217968334
H -7.268391043197661 -1.1241242921128034 -12.445367315658665
H -8.637172570646236 -0.80860717559052 -13.044050313493921
C -4.09263203772978 12.226272714433499 4.126573119756121
O -4.096578332952399 11.10238104972687 4.53848355912004
O -4.088685742507161 13.350164379140129 3.7146626803922014
C -6.077423161834457 11.183369341628074 -6.754381464270775
O -5.455898660846594 11.463808306841816 -7.767711015829217
O -5.6871568375404395 11.388810749075484 -5.5993414267274595
O -7.1928577505754285 10.650723305234912 -6.727136968406221