104

C -5.0710522388059704 1.0783507462686561 0.47044029850746183
C -3.8153522388059704 0.1782507462686569 0.19534029850746193
C -4.11845223880597 -1.3219492537313435 0.5608402985074619
C -2.96945223880597 -2.3874492537313436 0.7034402985074619
C -2.52015223880597 0.7359507462686565 0.7384402985074618
C -2.20305223880597 0.7852507462686571 2.097440298507462
C -1.5755522388059702 1.205650746268656 -0.18965970149253808
C -0.9533522388059701 1.2695507462686564 2.508640298507462
H -2.91125223880597 0.4298507462686567 2.840840298507462
C -0.32655223880597006 1.6562507462686575 0.21554029850746192
H -1.7850522388059702 1.178550746268657 -1.2573597014925382
C 0.004447761194029898 1.6956507462686563 1.569740298507462
H -0.7158522388059702 1.2676507462686573 3.5705402985074617
H 0.3943477611940298 1.9193507462686572 -0.5551597014925382
C -1.76045223880597 -2.1592492537313435 -0.1734597014925381
C -0.5287522388059701 -1.936549253731343 0.464840298507462
C -1.8068522388059702 -2.121249253731343 -1.5681597014925381
C 0.6114477611940299 -1.614449253731343 -0.2582597014925381
H -0.4544522388059702 -1.954049253731343 1.5506402985074619
C -0.6479522388059701 -1.8270492537313432 -2.2998597014925384
H -2.74345223880597 -2.290549253731343 -2.092259701492538
C 0.5698477611940298 -1.5506492537313434 -1.6506597014925382
H 1.5072477611940298 -1.351949253731343 0.2991402985074618
H -0.7173522388059701 -1.7640492537313435 -3.3840597014925375
C 1.7791477611940298 -1.082849253731343 -2.4255597014925376
H 1.4739477611940297 -0.9102492537313429 -3.464259701492538
H 2.1252477611940295 -0.1337492537313434 -2.0010597014925384
C 1.3965477611940298 2.0964507462686566 1.997440298507462
H 1.51704776119403 1.8448507462686567 3.057640298507462
H 2.1256477611940294 1.5207507462686571 1.4165402985074618
C 3.94864776119403 -1.4275492537313434 -3.522959701492538
H 4.81734776119403 -2.087049253731343 -3.615159701492538
H 3.4305477611940303 -1.3641492537313429 -4.484459701492538
H 4.26984776119403 -0.441449253731343 -3.176459701492538
C 2.60904776119403 -3.4296492537313434 -2.8992597014925376
H 1.9825477611940296 -3.869549253731343 -2.119359701492538
H 2.06294776119403 -3.373349253731343 -3.845759701492538
H 3.5215477611940305 -4.019849253731343 -3.0234597014925377
C 3.7281477611940304 -2.060049253731343 -1.156659701492538
H 3.9048477611940298 -1.032549253731343 -0.8295597014925382
H 3.12924776119403 -2.623249253731343 -0.4404597014925382
H 4.68244776119403 -2.5769492537313434 -1.3005597014925383
C 3.1110477611940297 3.755250746268656 2.588740298507462
H 3.40124776119403 4.809350746268656 2.534540298507462
H 2.9823477611940303 3.461750746268656 3.634840298507462
H 3.86514776119403 3.1392507462686563 2.091540298507462
C 1.99744776119403 3.9574507462686572 0.40494029850746194
H 2.67914776119403 3.230350746268657 -0.04295970149253803
H 1.03214776119403 3.981150746268657 -0.10175970149253821
H 2.4399477611940297 4.958250746268657 0.368240298507462
C 0.7418477611940297 4.4992507462686575 2.475440298507462
H -0.18475223880597014 4.424250746268656 1.901240298507462
H 0.57844776119403 4.189650746268656 3.511940298507462
H 1.1210477611940297 5.524350746268658 2.4432402985074617
N 3.00114776119403 -2.025349253731343 -2.490159701492538
N 1.7831477611940298 3.586450746268657 1.862540298507462
C -3.55075223880597 -3.8435492537313434 0.6444402985074619
H -2.62515223880597 -2.2736492537313433 1.7424402985074618
H -4.67195223880597 -1.3478492537313436 1.5102402985074619
H -4.83415223880597 -1.6757492537313432 -0.1945597014925382
H -3.7169522388059697 0.17335074626865676 -0.900559701492538
H -3.9132522388059705 -4.043149253731343 -0.34225970149253815
H -4.35435223880597 -3.9354492537313432 1.3449402985074619
H -2.78115223880597 -4.545049253731343 0.8904402985074619
H -5.24235223880597 1.138950746268657 1.5249402985074618
H -5.92805223880597 0.6501507462686567 -0.006059701492538094
H -4.89895223880597 2.059650746268657 0.08004029850746197
O -4.944446862214194 -0.8154269666170637 4.8609640887488
H -5.103058965844815 -0.4584461453751282 5.747741541522213
H -4.715018376006833 -0.03624390497271657 4.332571932804808
O -4.201002144796143 -3.16988196854939 -3.7803702604587617
H -3.5719093232403125 -2.474426785991513 -4.024402364535897
H -3.6485799643837113 -3.9591406238194002 -3.6761471633557234
O -7.594674946266424 11.026952708317097 -9.00555945976695
H -8.446808916730403 10.927474604401063 -8.555071768345123
H -6.961640863469301 10.60633716185029 -8.404466824320771
O -0.8584041026654547 -0.7452804693166792 9.824123918153722
H -0.8168801806011136 -1.0925338681005696 8.920432489717317
H -1.647915666823118 -1.163321509113871 10.199457267866483
O -12.415151238557348 -6.130927154872816 -12.941674701317615
H -12.315050813671341 -6.250552016638705 -11.985308059132134
H -13.221540378682393 -5.600615057631874 -13.028089853393533
O -14.262107676994068 -5.779246478947119 13.928939273965653
H -13.715545552258693 -5.1555735441926736 14.430206938152692
H -13.653068785110507 -6.148618148135485 13.271977979463273
O 5.644994541122414 0.538332728550305 13.27818813321345
H 4.687152305130204 0.5083877406597386 13.13463011166927
H 6.013301679248892 0.11266206871672213 12.489444647876217
O 7.602053504578438 3.1077039793382815 -7.259425148969887
H 7.356972754735358 3.1419287854855256 -8.196298377107258
H 7.341129582712424 2.216799841805414 -6.9816294164164985
O -0.8921133312274026 1.5200582545383772 -3.6121124460508187
H -0.8853750151795257 2.3619813693047784 -3.1324381598743747
H -0.37198892014551715 0.9262979092237369 -3.0500793566080704
O 0.12487555464326487 -0.20510469557228161 12.901865450674071
H 0.3704221523834785 0.6231654215397153 13.340776419251396
H -0.8422834858098381 -0.22248244615362384 12.958991176529985
C -2.8723261648727774 -7.466491066573082 2.8723542951289285
O -2.6201770607639014 -6.881647301402441 3.885861501288865
O -3.1244752689816533 -8.051334831743722 1.858847088968992
C -8.816597036046046 -10.037360784572638 -9.906618868947769
O -7.903828458077315 -9.227535037693702 -9.959640386890154
O -9.822606285018523 -9.931554812008427 -9.195716659602791
O -8.875545046081768 -11.088031227149827 -10.555668279707447