104

C -5.0710522388059704 1.0783507462686561 0.47044029850746183
C -3.8153522388059704 0.1782507462686569 0.19534029850746193
C -4.11845223880597 -1.3219492537313435 0.5608402985074619
C -2.96945223880597 -2.3874492537313436 0.7034402985074619
C -2.52015223880597 0.7359507462686565 0.7384402985074618
C -2.20305223880597 0.7852507462686571 2.097440298507462
C -1.5755522388059702 1.205650746268656 -0.18965970149253808
C -0.9533522388059701 1.2695507462686564 2.508640298507462
H -2.91125223880597 0.4298507462686567 2.840840298507462
C -0.32655223880597006 1.6562507462686575 0.21554029850746192
H -1.7850522388059702 1.178550746268657 -1.2573597014925382
C 0.004447761194029898 1.6956507462686563 1.569740298507462
H -0.7158522388059702 1.2676507462686573 3.5705402985074617
H 0.3943477611940298 1.9193507462686572 -0.5551597014925382
C -1.76045223880597 -2.1592492537313435 -0.1734597014925381
C -0.5287522388059701 -1.936549253731343 0.464840298507462
C -1.8068522388059702 -2.121249253731343 -1.5681597014925381
C 0.6114477611940299 -1.614449253731343 -0.2582597014925381
H -0.4544522388059702 -1.954049253731343 1.5506402985074619
C -0.6479522388059701 -1.8270492537313432 -2.2998597014925384
H -2.74345223880597 -2.290549253731343 -2.092259701492538
C 0.5698477611940298 -1.5506492537313434 -1.6506597014925382
H 1.5072477611940298 -1.351949253731343 0.2991402985074618
H -0.7173522388059701 -1.7640492537313435 -3.3840597014925375
C 1.7791477611940298 -1.082849253731343 -2.4255597014925376
H 1.4739477611940297 -0.9102492537313429 -3.464259701492538
H 2.1252477611940295 -0.1337492537313434 -2.0010597014925384
C 1.3965477611940298 2.0964507462686566 1.997440298507462
H 1.51704776119403 1.8448507462686567 3.057640298507462
H 2.1256477611940294 1.5207507462686571 1.4165402985074618
C 3.94864776119403 -1.4275492537313434 -3.522959701492538
H 4.81734776119403 -2.087049253731343 -3.615159701492538
H 3.4305477611940303 -1.3641492537313429 -4.484459701492538
H 4.26984776119403 -0.441449253731343 -3.176459701492538
C 2.60904776119403 -3.4296492537313434 -2.8992597014925376
H 1.9825477611940296 -3.869549253731343 -2.119359701492538
H 2.06294776119403 -3.373349253731343 -3.845759701492538
H 3.5215477611940305 -4.019849253731343 -3.0234597014925377
C 3.7281477611940304 -2.060049253731343 -1.156659701492538
H 3.9048477611940298 -1.032549253731343 -0.8295597014925382
H 3.12924776119403 -2.623249253731343 -0.4404597014925382
H 4.68244776119403 -2.5769492537313434 -1.3005597014925383
C 3.1110477611940297 3.755250746268656 2.588740298507462
H 3.40124776119403 4.809350746268656 2.534540298507462
H 2.9823477611940303 3.461750746268656 3.634840298507462
H 3.86514776119403 3.1392507462686563 2.091540298507462
C 1.99744776119403 3.9574507462686572 0.40494029850746194
H 2.67914776119403 3.230350746268657 -0.04295970149253803
H 1.03214776119403 3.981150746268657 -0.10175970149253821
H 2.4399477611940297 4.958250746268657 0.368240298507462
C 0.7418477611940297 4.4992507462686575 2.475440298507462
H -0.18475223880597014 4.424250746268656 1.901240298507462
H 0.57844776119403 4.189650746268656 3.511940298507462
H 1.1210477611940297 5.524350746268658 2.4432402985074617
N 3.00114776119403 -2.025349253731343 -2.490159701492538
N 1.7831477611940298 3.586450746268657 1.862540298507462
C -3.55075223880597 -3.8435492537313434 0.6444402985074619
H -2.62515223880597 -2.2736492537313433 1.7424402985074618
H -4.67195223880597 -1.3478492537313436 1.5102402985074619
H -4.83415223880597 -1.6757492537313432 -0.1945597014925382
H -3.7169522388059697 0.17335074626865676 -0.900559701492538
H -3.9132522388059705 -4.043149253731343 -0.34225970149253815
H -4.35435223880597 -3.9354492537313432 1.3449402985074619
H -2.78115223880597 -4.545049253731343 0.8904402985074619
H -5.24235223880597 1.138950746268657 1.5249402985074618
H -5.92805223880597 0.6501507462686567 -0.006059701492538094
H -4.89895223880597 2.059650746268657 0.08004029850746197
O 5.337903043541494 5.101976403928552 6.850335059457983
H 5.69020042036996 4.668231297650085 6.058679138012773
H 6.100010554349906 5.156052707507352 7.446346669798468
O -5.388664018358385 4.300258924279203 7.472627578322554
H -5.424611442210384 4.876235578765436 6.694215070004984
H -5.2826208657188785 3.4114713285200233 7.101449179566794
O 1.842859874994727 -2.961574967861606 1.9290264756775326
H 2.7518533939662735 -2.7102311842215467 2.1515673523569085
H 1.6224703788212826 -3.643943109091226 2.580765790213067
O 0.4905507153008737 -4.9689274396701855 -0.07043398638437237
H -0.2504956498612224 -5.59289423108034 -0.04845479628639823
H 0.35697152484096667 -4.419088929662896 0.7162019885678541
O 4.155560889908908 -5.131499847255517 4.349233329470967
H 4.029443479327687 -5.164440583317709 5.309429488365581
H 4.6667072988334155 -4.320487476533048 4.207988055289137
O 11.981317755485128 -4.913417566211088 11.952790772975595
H 12.403802558261798 -4.833138272011859 12.821139310859797
H 11.816124273869795 -3.9962878005861286 11.68718570725487
O -7.401274128366371 -5.766923783628295 -8.844421050559937
H -7.773729295341297 -6.653921933803928 -8.72832287194077
H -8.169284815597557 -5.179914279122582 -8.777031361299356
O -10.555700852030853 0.7173485595984017 -12.164227671518045
H -10.313659574038335 0.5866647785555497 -11.23508552630016
H -9.972007784178917 1.4321019824422936 -12.459848867264453
O -1.8389153868309553 0.6736296169624696 -8.653704185235018
H -1.1849671453647002 0.6570848693041802 -9.368578527835252
H -1.8436366023007296 -0.23597837108006153 -8.319708732401141
O -2.7359948209887937 2.280635935544023 -6.475649410661169
H -2.8652868423386755 1.948473039652879 -7.376714747198133
H -2.710913689060896 1.4789032459540985 -5.931997338500931
C 6.142393685905186 -3.320272664289493 12.315840981476857
O 6.505912864373211 -3.137225268637055 13.441525535484237
O 5.778874507437162 -3.5033200599419305 11.190156427469478
C 6.6731469233019105 4.56845844623291 11.56777376922295
O 6.014056418559138 3.7724927751358024 12.218783642875298
O 6.28807934116133 5.142010941901308 10.54239971259924
O 7.827212775887279 4.923589661990871 11.833597417325743