104

C -5.0710522388059704 1.0783507462686561 0.47044029850746183
C -3.8153522388059704 0.1782507462686569 0.19534029850746193
C -4.11845223880597 -1.3219492537313435 0.5608402985074619
C -2.96945223880597 -2.3874492537313436 0.7034402985074619
C -2.52015223880597 0.7359507462686565 0.7384402985074618
C -2.20305223880597 0.7852507462686571 2.097440298507462
C -1.5755522388059702 1.205650746268656 -0.18965970149253808
C -0.9533522388059701 1.2695507462686564 2.508640298507462
H -2.91125223880597 0.4298507462686567 2.840840298507462
C -0.32655223880597006 1.6562507462686575 0.21554029850746192
H -1.7850522388059702 1.178550746268657 -1.2573597014925382
C 0.004447761194029898 1.6956507462686563 1.569740298507462
H -0.7158522388059702 1.2676507462686573 3.5705402985074617
H 0.3943477611940298 1.9193507462686572 -0.5551597014925382
C -1.76045223880597 -2.1592492537313435 -0.1734597014925381
C -0.5287522388059701 -1.936549253731343 0.464840298507462
C -1.8068522388059702 -2.121249253731343 -1.5681597014925381
C 0.6114477611940299 -1.614449253731343 -0.2582597014925381
H -0.4544522388059702 -1.954049253731343 1.5506402985074619
C -0.6479522388059701 -1.8270492537313432 -2.2998597014925384
H -2.74345223880597 -2.290549253731343 -2.092259701492538
C 0.5698477611940298 -1.5506492537313434 -1.6506597014925382
H 1.5072477611940298 -1.351949253731343 0.2991402985074618
H -0.7173522388059701 -1.7640492537313435 -3.3840597014925375
C 1.7791477611940298 -1.082849253731343 -2.4255597014925376
H 1.4739477611940297 -0.9102492537313429 -3.464259701492538
H 2.1252477611940295 -0.1337492537313434 -2.0010597014925384
C 1.3965477611940298 2.0964507462686566 1.997440298507462
H 1.51704776119403 1.8448507462686567 3.057640298507462
H 2.1256477611940294 1.5207507462686571 1.4165402985074618
C 3.94864776119403 -1.4275492537313434 -3.522959701492538
H 4.81734776119403 -2.087049253731343 -3.615159701492538
H 3.4305477611940303 -1.3641492537313429 -4.484459701492538
H 4.26984776119403 -0.441449253731343 -3.176459701492538
C 2.60904776119403 -3.4296492537313434 -2.8992597014925376
H 1.9825477611940296 -3.869549253731343 -2.119359701492538
H 2.06294776119403 -3.373349253731343 -3.845759701492538
H 3.5215477611940305 -4.019849253731343 -3.0234597014925377
C 3.7281477611940304 -2.060049253731343 -1.156659701492538
H 3.9048477611940298 -1.032549253731343 -0.8295597014925382
H 3.12924776119403 -2.623249253731343 -0.4404597014925382
H 4.68244776119403 -2.5769492537313434 -1.3005597014925383
C 3.1110477611940297 3.755250746268656 2.588740298507462
H 3.40124776119403 4.809350746268656 2.534540298507462
H 2.9823477611940303 3.461750746268656 3.634840298507462
H 3.86514776119403 3.1392507462686563 2.091540298507462
C 1.99744776119403 3.9574507462686572 0.40494029850746194
H 2.67914776119403 3.230350746268657 -0.04295970149253803
H 1.03214776119403 3.981150746268657 -0.10175970149253821
H 2.4399477611940297 4.958250746268657 0.368240298507462
C 0.7418477611940297 4.4992507462686575 2.475440298507462
H -0.18475223880597014 4.424250746268656 1.901240298507462
H 0.57844776119403 4.189650746268656 3.511940298507462
H 1.1210477611940297 5.524350746268658 2.4432402985074617
N 3.00114776119403 -2.025349253731343 -2.490159701492538
N 1.7831477611940298 3.586450746268657 1.862540298507462
C -3.55075223880597 -3.8435492537313434 0.6444402985074619
H -2.62515223880597 -2.2736492537313433 1.7424402985074618
H -4.67195223880597 -1.3478492537313436 1.5102402985074619
H -4.83415223880597 -1.6757492537313432 -0.1945597014925382
H -3.7169522388059697 0.17335074626865676 -0.900559701492538
H -3.9132522388059705 -4.043149253731343 -0.34225970149253815
H -4.35435223880597 -3.9354492537313432 1.3449402985074619
H -2.78115223880597 -4.545049253731343 0.8904402985074619
H -5.24235223880597 1.138950746268657 1.5249402985074618
H -5.92805223880597 0.6501507462686567 -0.006059701492538094
H -4.89895223880597 2.059650746268657 0.08004029850746197
O -11.959228282546926 -6.308055856565193 -13.615292800086177
H -12.131992361942762 -6.128776598114833 -12.678821296376642
H -11.953556025647242 -5.42975352924633 -14.02457850913052
O 8.177219934636135 3.5313126715163405 -12.164661980219847
H 8.219142591482662 3.7343886367879393 -11.218105061660832
H 7.278429172494011 3.1922021631601227 -12.291709897598949
O -2.5745644285001275 1.7644234046593001 8.000646170605153
H -3.0687883846836668 1.2589958330212472 7.337884518227503
H -1.9958157641458207 1.1059355224041507 8.413448346872713
O -3.2930660840531827 0.23715928778455989 -8.888317915961018
H -2.558081431233531 0.1902099571430933 -8.258587277217838
H -2.9686797799938196 0.8298666465267444 -9.58289221503317
O -1.4772879835619497 -0.1530275105376678 14.105744678322443
H -1.760897236295248 -0.0033196281216586465 13.191348320823915
H -2.307909332551353 -0.23703730519495736 14.597651654594038
O 3.3204921718302676 -0.0027766705810787218 4.203761295272368
H 2.5270701008313163 -0.5514105762996713 4.295683064444305
H 3.783440849001928 -0.3862232973570789 3.4437552748889013
O -11.051563329583626 -4.503449202611706 13.562563402531218
H -11.072276245778772 -4.9464652609343105 14.424117291774946
H -10.326209171937174 -3.8661745833386014 13.644443497275454
O 2.550453856264276 3.2853106026717587 -8.466096244669766
H 2.258749765992209 3.5453913137466437 -9.352794673869528
H 2.5424044530298895 2.3166838907576626 -8.491775893694944
O -2.1308643388679394 9.294244490073787 -2.4798211787292503
H -2.846371653262729 9.273768224796951 -3.132965391371351
H -2.387004133130062 10.006065813285366 -1.8742926873131378
O -0.527142542160115 10.850709757656336 -0.6717886699749664
H -0.5453106092191585 11.793344424291588 -0.44800939591951083
H 0.0465442375745842 10.460565342365257 0.004696923570684741
C -6.187227674184425 2.602972564238716 6.452258888073245
O -6.058877816955652 2.596315179056591 7.642343024036703
O -6.315577531413197 2.609629949420841 5.262174752109787
C 3.804472780785714 -11.2260336683153 3.7928497744878724
O 4.664783771679622 -10.45221742560035 3.4018907995842884
O 3.9309151562223157 -12.01424129092341 4.736975048726635
O 2.6742620623588524 -11.340663931533788 3.304862050146882