104

C -5.0710522388059704 1.0783507462686561 0.47044029850746183
C -3.8153522388059704 0.1782507462686569 0.19534029850746193
C -4.11845223880597 -1.3219492537313435 0.5608402985074619
C -2.96945223880597 -2.3874492537313436 0.7034402985074619
C -2.52015223880597 0.7359507462686565 0.7384402985074618
C -2.20305223880597 0.7852507462686571 2.097440298507462
C -1.5755522388059702 1.205650746268656 -0.18965970149253808
C -0.9533522388059701 1.2695507462686564 2.508640298507462
H -2.91125223880597 0.4298507462686567 2.840840298507462
C -0.32655223880597006 1.6562507462686575 0.21554029850746192
H -1.7850522388059702 1.178550746268657 -1.2573597014925382
C 0.004447761194029898 1.6956507462686563 1.569740298507462
H -0.7158522388059702 1.2676507462686573 3.5705402985074617
H 0.3943477611940298 1.9193507462686572 -0.5551597014925382
C -1.76045223880597 -2.1592492537313435 -0.1734597014925381
C -0.5287522388059701 -1.936549253731343 0.464840298507462
C -1.8068522388059702 -2.121249253731343 -1.5681597014925381
C 0.6114477611940299 -1.614449253731343 -0.2582597014925381
H -0.4544522388059702 -1.954049253731343 1.5506402985074619
C -0.6479522388059701 -1.8270492537313432 -2.2998597014925384
H -2.74345223880597 -2.290549253731343 -2.092259701492538
C 0.5698477611940298 -1.5506492537313434 -1.6506597014925382
H 1.5072477611940298 -1.351949253731343 0.2991402985074618
H -0.7173522388059701 -1.7640492537313435 -3.3840597014925375
C 1.7791477611940298 -1.082849253731343 -2.4255597014925376
H 1.4739477611940297 -0.9102492537313429 -3.464259701492538
H 2.1252477611940295 -0.1337492537313434 -2.0010597014925384
C 1.3965477611940298 2.0964507462686566 1.997440298507462
H 1.51704776119403 1.8448507462686567 3.057640298507462
H 2.1256477611940294 1.5207507462686571 1.4165402985074618
C 3.94864776119403 -1.4275492537313434 -3.522959701492538
H 4.81734776119403 -2.087049253731343 -3.615159701492538
H 3.4305477611940303 -1.3641492537313429 -4.484459701492538
H 4.26984776119403 -0.441449253731343 -3.176459701492538
C 2.60904776119403 -3.4296492537313434 -2.8992597014925376
H 1.9825477611940296 -3.869549253731343 -2.119359701492538
H 2.06294776119403 -3.373349253731343 -3.845759701492538
H 3.5215477611940305 -4.019849253731343 -3.0234597014925377
C 3.7281477611940304 -2.060049253731343 -1.156659701492538
H 3.9048477611940298 -1.032549253731343 -0.8295597014925382
H 3.12924776119403 -2.623249253731343 -0.4404597014925382
H 4.68244776119403 -2.5769492537313434 -1.3005597014925383
C 3.1110477611940297 3.755250746268656 2.588740298507462
H 3.40124776119403 4.809350746268656 2.534540298507462
H 2.9823477611940303 3.461750746268656 3.634840298507462
H 3.86514776119403 3.1392507462686563 2.091540298507462
C 1.99744776119403 3.9574507462686572 0.40494029850746194
H 2.67914776119403 3.230350746268657 -0.04295970149253803
H 1.03214776119403 3.981150746268657 -0.10175970149253821
H 2.4399477611940297 4.958250746268657 0.368240298507462
C 0.7418477611940297 4.4992507462686575 2.475440298507462
H -0.18475223880597014 4.424250746268656 1.901240298507462
H 0.57844776119403 4.189650746268656 3.511940298507462
H 1.1210477611940297 5.524350746268658 2.4432402985074617
N 3.00114776119403 -2.025349253731343 -2.490159701492538
N 1.7831477611940298 3.586450746268657 1.862540298507462
C -3.55075223880597 -3.8435492537313434 0.6444402985074619
H -2.62515223880597 -2.2736492537313433 1.7424402985074618
H -4.67195223880597 -1.3478492537313436 1.5102402985074619
H -4.83415223880597 -1.6757492537313432 -0.1945597014925382
H -3.7169522388059697 0.17335074626865676 -0.900559701492538
H -3.9132522388059705 -4.043149253731343 -0.34225970149253815
H -4.35435223880597 -3.9354492537313432 1.3449402985074619
H -2.78115223880597 -4.545049253731343 0.8904402985074619
H -5.24235223880597 1.138950746268657 1.5249402985074618
H -5.92805223880597 0.6501507462686567 -0.006059701492538094
H -4.89895223880597 2.059650746268657 0.08004029850746197
O -5.1778342883106 -5.380195575107319 9.85535552489848
H -4.2845839071964456 -5.022350938567241 9.741257629918257
H -5.433843505279146 -5.659332677377817 8.963445381855369
O 8.79113874317345 0.8111623605968656 -9.181571575434598
H 8.84077610086371 0.9178635858046565 -8.219740853238282
H 7.949354230759495 1.2276339240336243 -9.420134388564682
O 13.582857075966636 0.8984274701426529 -14.930453365456206
H 13.10704895491706 0.38765510928249763 -14.258377786205914
H 13.320679932562003 0.4858279265256987 -15.767105447497041
O 6.968396286956825 12.501847045467464 -6.958135743324331
H 6.448982910002214 11.851246356809172 -7.454014604194571
H 6.955149896652254 12.167812420933725 -6.048626344221439
O -8.133076217430986 5.6572530952454505 7.815648060791171
H -7.231903249516843 5.689667449471157 8.170336583922305
H -8.68451400501807 5.483125320128453 8.59318122963599
O 5.464372903463146 4.58282538468439 -7.741360928689033
H 5.983534855036531 4.7578187425342975 -8.540620304390643
H 6.050566242839565 4.851395005024269 -7.01802858999456
O 10.536934217824674 -3.890003401957568 12.301193612597311
H 9.704112079541577 -3.8025987011017923 12.788774437849785
H 10.264953810159929 -3.8881928198487143 11.371147740643165
O -3.6145216988218634 0.12886945615310247 -4.854424173533033
H -2.7934731414789624 0.42418604977776075 -5.275891530412627
H -4.115829459367527 0.947079267907943 -4.719571745061021
O -12.845638619949897 4.8208435592413865 -13.925928422976018
H -12.69789778622596 4.764270525411907 -14.88193025079534
H -13.083176297470686 3.9164129339604976 -13.671875199985147
O 6.338448112666688 -0.82846970647062 11.934929982571983
H 6.793055681996501 -0.36560989989353226 11.215166053034347
H 6.656045200200374 -0.38499518172521585 12.735819725415503
C -5.601016599227361 -2.298413674789844 7.401088745170066
O -6.49705479577791 -3.066271789781236 7.200271109330218
O -4.7049784026768116 -1.5305555597984521 7.601906381009914
C -12.876966670554584 1.8666403369176319 -12.83136132021298
O -13.073568957984484 2.6400857723607682 -11.90675048447207
O -13.669720391482345 1.641874106421572 -13.753127637499407
O -11.854816395914009 1.1889934116897352 -12.988370381038706