104

C -5.0710522388059704 1.0783507462686561 0.47044029850746183
C -3.8153522388059704 0.1782507462686569 0.19534029850746193
C -4.11845223880597 -1.3219492537313435 0.5608402985074619
C -2.96945223880597 -2.3874492537313436 0.7034402985074619
C -2.52015223880597 0.7359507462686565 0.7384402985074618
C -2.20305223880597 0.7852507462686571 2.097440298507462
C -1.5755522388059702 1.205650746268656 -0.18965970149253808
C -0.9533522388059701 1.2695507462686564 2.508640298507462
H -2.91125223880597 0.4298507462686567 2.840840298507462
C -0.32655223880597006 1.6562507462686575 0.21554029850746192
H -1.7850522388059702 1.178550746268657 -1.2573597014925382
C 0.004447761194029898 1.6956507462686563 1.569740298507462
H -0.7158522388059702 1.2676507462686573 3.5705402985074617
H 0.3943477611940298 1.9193507462686572 -0.5551597014925382
C -1.76045223880597 -2.1592492537313435 -0.1734597014925381
C -0.5287522388059701 -1.936549253731343 0.464840298507462
C -1.8068522388059702 -2.121249253731343 -1.5681597014925381
C 0.6114477611940299 -1.614449253731343 -0.2582597014925381
H -0.4544522388059702 -1.954049253731343 1.5506402985074619
C -0.6479522388059701 -1.8270492537313432 -2.2998597014925384
H -2.74345223880597 -2.290549253731343 -2.092259701492538
C 0.5698477611940298 -1.5506492537313434 -1.6506597014925382
H 1.5072477611940298 -1.351949253731343 0.2991402985074618
H -0.7173522388059701 -1.7640492537313435 -3.3840597014925375
C 1.7791477611940298 -1.082849253731343 -2.4255597014925376
H 1.4739477611940297 -0.9102492537313429 -3.464259701492538
H 2.1252477611940295 -0.1337492537313434 -2.0010597014925384
C 1.3965477611940298 2.0964507462686566 1.997440298507462
H 1.51704776119403 1.8448507462686567 3.057640298507462
H 2.1256477611940294 1.5207507462686571 1.4165402985074618
C 3.94864776119403 -1.4275492537313434 -3.522959701492538
H 4.81734776119403 -2.087049253731343 -3.615159701492538
H 3.4305477611940303 -1.3641492537313429 -4.484459701492538
H 4.26984776119403 -0.441449253731343 -3.176459701492538
C 2.60904776119403 -3.4296492537313434 -2.8992597014925376
H 1.9825477611940296 -3.869549253731343 -2.119359701492538
H 2.06294776119403 -3.373349253731343 -3.845759701492538
H 3.5215477611940305 -4.019849253731343 -3.0234597014925377
C 3.7281477611940304 -2.060049253731343 -1.156659701492538
H 3.9048477611940298 -1.032549253731343 -0.8295597014925382
H 3.12924776119403 -2.623249253731343 -0.4404597014925382
H 4.68244776119403 -2.5769492537313434 -1.3005597014925383
C 3.1110477611940297 3.755250746268656 2.588740298507462
H 3.40124776119403 4.809350746268656 2.534540298507462
H 2.9823477611940303 3.461750746268656 3.634840298507462
H 3.86514776119403 3.1392507462686563 2.091540298507462
C 1.99744776119403 3.9574507462686572 0.40494029850746194
H 2.67914776119403 3.230350746268657 -0.04295970149253803
H 1.03214776119403 3.981150746268657 -0.10175970149253821
H 2.4399477611940297 4.958250746268657 0.368240298507462
C 0.7418477611940297 4.4992507462686575 2.475440298507462
H -0.18475223880597014 4.424250746268656 1.901240298507462
H 0.57844776119403 4.189650746268656 3.511940298507462
H 1.1210477611940297 5.524350746268658 2.4432402985074617
N 3.00114776119403 -2.025349253731343 -2.490159701492538
N 1.7831477611940298 3.586450746268657 1.862540298507462
C -3.55075223880597 -3.8435492537313434 0.6444402985074619
H -2.62515223880597 -2.2736492537313433 1.7424402985074618
H -4.67195223880597 -1.3478492537313436 1.5102402985074619
H -4.83415223880597 -1.6757492537313432 -0.1945597014925382
H -3.7169522388059697 0.17335074626865676 -0.900559701492538
H -3.9132522388059705 -4.043149253731343 -0.34225970149253815
H -4.35435223880597 -3.9354492537313432 1.3449402985074619
H -2.78115223880597 -4.545049253731343 0.8904402985074619
H -5.24235223880597 1.138950746268657 1.5249402985074618
H -5.92805223880597 0.6501507462686567 -0.006059701492538094
H -4.89895223880597 2.059650746268657 0.08004029850746197
O 2.796851062930256 8.580514262928967 -3.5372385194334397
H 1.9115338766628307 8.69671789845804 -3.9136393054174174
H 3.1995953122927565 9.458776621404194 -3.610820063253635
O -3.735348957496987 -1.7958120345079138 6.6824933800463775
H -4.249541077355275 -1.957420280855128 5.87722535293477
H -4.068520435517601 -0.9454243774991458 7.006220955857733
O -4.178280821408963 10.365220801771061 4.628693275060183
H -4.335212803198469 10.407132435220229 5.583985442396042
H -3.290279414807426 10.737748075525941 4.520809650341475
O -0.10945318642992341 -0.08221597987205675 14.92502087795711
H 0.7195255923875554 -0.502398782383977 15.199261563566504
H 0.17719628643788637 0.6968614068541273 14.425188456543186
O 3.086254628994602 -2.6224402244077165 4.995863892138213
H 3.9292657006879623 -2.393248584883932 4.576613510773076
H 2.673054068055869 -1.7644602890241563 5.175022121698392
O 0.719784876943392 -4.187245620027086 1.934239380055769
H 0.7373675357922684 -4.305262779936384 0.9726104719135747
H 1.6250698074975647 -3.920471655852055 2.153904559021088
O 2.2391659732384355 6.950223224596736 3.5090293562616726
H 1.5158685953987088 7.251867198621057 4.078958451013811
H 2.2825290846197697 7.621011887818032 2.8110865547620683
O -1.4982265757802455 -9.374857820335398 -1.1730296205741086
H -1.1340696408723887 -8.960968840096548 -1.9699317448625058
H -1.826810505036493 -10.231879133172443 -1.483688621856214
O -6.4754640093399916 4.547761649595386 -6.538992411091684
H -6.287247703840244 5.428455519791264 -6.896651866780238
H -6.250037739563097 4.623542864237051 -5.599629782123559
O 1.9275446581081188 1.1341708697224115 -5.36428585809349
H 1.8447757108165146 1.792305422970979 -6.0706678851047595
H 1.0552536204477674 0.713342162319102 -5.333085073765428
C 6.862615064933647 -5.269755087247809 -7.138227772498305
O 6.213484162184253 -6.250824900531043 -7.359472772125769
O 7.511745967683041 -4.288685273964575 -6.916982772870841
C 12.060238198777638 -4.751724852364831 -12.110056477353412
O 12.062443108447725 -5.971820659891349 -12.054048822255544
O 11.057041564993924 -4.0477592821954 -12.273336770350006
O 13.060876338827846 -4.032155336220759 -12.012120740704084