146

C -5.3564454929577465 1.0091607042253532 -0.0734429577464788
C -4.079135492957747 0.16955070422535368 -0.19788295774647868
C -4.333545492957747 -1.2789292957746463 0.3017270422535212
C -3.1403854929577464 -2.1745492957746464 0.7330270422535212
C -2.905235492957746 0.902300704225353 0.41966704225352136
C -2.7423854929577463 1.056130704225354 1.8024770422535212
C -1.8861754929577463 1.3499307042253532 -0.4326129577464788
C -1.5304554929577463 1.5279207042253526 2.3254170422535214
H -3.5237954929577464 0.7301007042253529 2.484817042253521
C -0.6776454929577462 1.8010507042253527 0.08546704225352131
H -1.9759254929577463 1.2426607042253535 -1.5115229577464788
C -0.4680254929577463 1.8513207042253539 1.4698070422535212
H -1.3950654929577464 1.5446707042253527 3.404047042253521
H 0.1461845070422536 1.9972507042253538 -0.6030529577464789
C -1.8679654929577463 -2.0866092957746467 -0.08765295774647863
C -0.6628654929577462 -1.814079295774647 0.5787970422535212
C -1.8438954929577462 -2.213429295774647 -1.4808029577464787
C 0.5129345070422537 -1.5763292957746469 -0.13022295774647863
H -0.6401854929577462 -1.7032692957746463 1.6609470422535213
C -0.6547954929577462 -1.9962392957746466 -2.1933129577464787
H -2.7578654929577464 -2.4351492957746466 -2.026182957746479
C 0.5308845070422537 -1.645769295774647 -1.5261029577464789
H 1.4044045070422537 -1.2610992957746463 0.41551704225352126
H -0.6795654929577464 -2.0467992957746466 -3.2793129577464786
C 1.7843245070422535 -1.2521692957746469 -2.2771629577464787
H 1.4981245070422535 -0.9384492957746469 -3.290282957746479
H 2.241984507042254 -0.38631929577464685 -1.8135029577464787
C 0.9385645070422537 2.0647807042253534 1.9815670422535212
H 1.0508945070422537 1.5807407042253532 2.9609770422535213
H 1.6053245070422537 1.5496207042253536 1.3096170422535214
C 3.9676945070422533 -1.6881692957746468 -3.314052957746479
H 4.795084507042254 -2.398849295774647 -3.4044129577464783
H 3.548404507042253 -1.4816192957746468 -4.303802957746479
H 4.307714507042253 -0.7637192957746466 -2.851282957746479
C 2.344694507042253 -3.565079295774647 -3.101282957746479
H 1.6334345070422536 -4.047909295774646 -2.4251929577464786
H 1.8561845070422536 -3.293109295774647 -4.041792957746479
H 3.1808045070422537 -4.243519295774647 -3.298122957746479
C 3.5156645070422536 -2.648489295774647 -1.1110629577464786
H 3.9311845070422535 -1.748249295774647 -0.6771029577464787
H 2.767184507042254 -3.1044092957746465 -0.45972295774647876
H 4.319224507042254 -3.371819295774647 -1.2863129577464787
C 2.963994507042253 3.381090704225353 2.401027042253521
H 3.3337945070422537 4.369820704225353 2.6912870422535216
H 3.120994507042253 2.671350704225353 3.2183370422535216
H 3.4665445070422534 3.0664207042253535 1.4881370422535212
C 1.2973745070422538 4.282440704225354 0.8488370422535213
H 1.7592145070422538 3.7367207042253527 0.02653704225352116
H 0.23311450704225378 4.4484607042253534 0.6605570422535213
H 1.7921845070422535 5.251370704225354 0.9736770422535213
C 0.7724845070422537 4.194670704225353 3.2772470422535216
H -0.2956954929577462 4.278220704225354 3.057857042253521
H 0.9298945070422537 3.612620704225354 4.190337042253521
H 1.2046345070422537 5.193640704225353 3.3918370422535213
N 2.876084507042253 -2.324759295774647 -2.4576629577464786
N 1.4527845070422536 3.504690704225353 2.1388470422535213
C -3.593905492957746 -3.637819295774647 0.8297870422535213
H -2.8952554929577463 -1.8680692957746468 1.7595270422535212
H -5.022615492957747 -1.2402792957746467 1.1579970422535213
H -4.898275492957747 -1.7933092957746464 -0.48931295774647876
H -3.883675492957746 0.07871070422535364 -1.2758929577464788
H -3.8751654929577466 -4.038529295774646 -0.1505529577464788
H -4.4603554929577465 -3.7321892957746465 1.4932570422535212
H -2.7953554929577464 -4.271929295774647 1.2313670422535212
H -5.648775492957746 1.147700704225353 0.9733970422535213
H -6.189795492957747 0.5254307042253537 -0.5943629577464788
H -5.2178854929577465 2.002970704225354 -0.5139729577464787
C 3.6710445070422537 1.0263707042253536 -0.27764295774647874
O 2.7356545070422538 1.6631507042253526 -0.7327029577464788
O 3.650814507042253 0.3883007042253537 0.7790570422535212
O 4.756604507042254 0.8696707042253538 -0.8334829577464786
O 7.0297435250968245 2.1060174346875526 4.640533311379649
H 7.269534609799617 2.5081316913611658 5.488926921195804
H 6.06134698114348 2.138953826278013 4.631299023739745
O -7.074267783962237 -2.6657727470805 -10.205721379846892
H -7.999318735571709 -2.377270438872675 -10.201911919889355
H -7.099159337223988 -3.5373069133767534 -9.782908712280612
O 6.225034243303357 -7.617511911852126 -2.828565732319924
H 5.811844104034487 -8.120598346886931 -3.5463019684087413
H 7.12699304682758 -7.969037641481938 -2.7854157328601223
O 2.362634146132772 8.784399498969766 2.4329029677316876
H 2.7515344065104097 8.988107181111895 3.296747354536677
H 3.129907255136381 8.657944929323026 1.8547480038029922
O -5.214028369322093 6.0780339059055155 6.731202481895128
H -4.533819455443479 5.6999803254897055 7.308574702143787
H -4.841697129375895 6.929717887911387 6.45740367463924
O -0.20665667845886837 -1.086307803496462 10.928556357913209
H -0.10497642317521105 -0.12370432460333758 10.883578307618587
H -0.6757382098112075 -1.2333547573794819 11.763602257608472
O -2.030822628142354 4.3108548450473725 -0.8824219606178086
H -2.670418486370796 3.9487537017758934 -0.2509417494642747
H -2.4964812410548625 5.059921518434024 -1.283698821826941
O 1.5437870368549835 5.8423559453606 5.92344179435219
H 2.0136128904507333 5.703168930630726 5.087464522458024
H 1.737572193158067 5.04358726625999 6.436645316148812
O 9.605053224311758 -4.819945942794346 -3.243044253185499
H 9.95913577759373 -5.3262531755698745 -2.49655521214035
H 8.64611608642798 -4.94098120072232 -3.174109673868751
O -3.1930304711721824 -7.868351640136708 -1.5987500896304787
H -2.949659550056645 -7.006842272749649 -1.9696133549449706
H -2.3608042528807625 -8.212918941384729 -1.2414899032130473
O 10.414154477911492 3.1905111489076345 4.355052197156477
H 9.989326616289608 3.5325399922743133 3.554112177432757
H 10.155160127675977 3.8202236653260835 5.044505616548989
O 7.9024124147342505 -2.6392827222764876 -1.706137680913741
H 8.07975882044469 -3.2590028468822703 -0.9826305445009882
H 7.354125251594363 -3.148744703253858 -2.321598175969782
O -9.037887850843017 1.9475915886927888 7.52137346844032
H -8.679158166047966 1.0501777798413463 7.591579065294059
H -9.395479860560595 2.1264304790254043 8.404043593793356
O -9.50945034310772 3.9439818719212 3.4832291297815656
H -10.147847301991524 4.183308429465965 4.171806996577821
H -8.808131810281632 3.480459649606685 3.9651641972287046
O 11.631080364765161 -1.7474392382415884 -4.2722397166910735
H 12.570847696070915 -1.6271348499194178 -4.475541399076856
H 11.175967921319463 -1.3941839179932098 -5.051370826862591
O -7.522560815326761 0.5098251234770506 5.338358155320984
H -8.290452538220654 0.3204907660493197 5.898235070283976
H -7.884415444131244 0.5172801279725783 4.43948797847633
O 4.187083015826109 -11.128279320944475 5.084309581451305
H 4.682073074100902 -11.378972131154187 5.878730952021279
H 4.711157317329981 -11.495157713066392 4.356498949351675
O 6.190880095499148 -2.5592920466201656 -4.654642872621753
H 5.678075959638038 -1.8761823237221282 -5.1122020290440755
H 6.1308622386647595 -3.328785912951756 -5.2405088904441435
O -6.026948235116795 1.121530446449353 -4.199857434616293
H -6.09169118570472 0.40622718281889386 -3.5493830321308577
H -5.254004919293987 0.8833508507333254 -4.7335156164231424
O 5.8258832521173085 -6.008991031457998 0.738221886098406
H 4.952497443499968 -5.883730087354381 0.3376294721810864
H 5.945219458109093 -5.221696308252891 1.2903883764370363
O 1.9574057311368238 -7.016687173228468 -1.691568662843902
H 1.4414990057943353 -6.2200037685388665 -1.4963683545998436
H 2.670712959887384 -6.698885061371293 -2.2652903370129325
O 3.986447721706745 -2.3378442694366446 6.191216075575402
H 4.6777904149311365 -2.813585502155243 6.675656904693505
H 3.616521130294022 -1.7294330949741585 6.848446707891745
O 3.4770336391841585 -11.566885734017948 -2.1818527036641884
H 3.3849359499023772 -12.10960051590678 -2.9793149523307414
H 4.332693184114624 -11.126648591397085 -2.2958700081684165
O -0.27031442059802835 -11.198615248859399 -13.922448234847778
H -0.9571047677138815 -11.725040371434915 -14.35852502433541
H 0.4676835347897539 -11.21050999066502 -14.550285377155262
C 8.218454886396888 0.729735200793184 -1.0944706848537609
O 7.302241404973225 1.0325225205696529 -0.38616922873488924
O 9.134668367820552 0.426947881016715 -1.802772140972633