146

C -5.3564454929577465 1.0091607042253532 -0.0734429577464788
C -4.079135492957747 0.16955070422535368 -0.19788295774647868
C -4.333545492957747 -1.2789292957746463 0.3017270422535212
C -3.1403854929577464 -2.1745492957746464 0.7330270422535212
C -2.905235492957746 0.902300704225353 0.41966704225352136
C -2.7423854929577463 1.056130704225354 1.8024770422535212
C -1.8861754929577463 1.3499307042253532 -0.4326129577464788
C -1.5304554929577463 1.5279207042253526 2.3254170422535214
H -3.5237954929577464 0.7301007042253529 2.484817042253521
C -0.6776454929577462 1.8010507042253527 0.08546704225352131
H -1.9759254929577463 1.2426607042253535 -1.5115229577464788
C -0.4680254929577463 1.8513207042253539 1.4698070422535212
H -1.3950654929577464 1.5446707042253527 3.404047042253521
H 0.1461845070422536 1.9972507042253538 -0.6030529577464789
C -1.8679654929577463 -2.0866092957746467 -0.08765295774647863
C -0.6628654929577462 -1.814079295774647 0.5787970422535212
C -1.8438954929577462 -2.213429295774647 -1.4808029577464787
C 0.5129345070422537 -1.5763292957746469 -0.13022295774647863
H -0.6401854929577462 -1.7032692957746463 1.6609470422535213
C -0.6547954929577462 -1.9962392957746466 -2.1933129577464787
H -2.7578654929577464 -2.4351492957746466 -2.026182957746479
C 0.5308845070422537 -1.645769295774647 -1.5261029577464789
H 1.4044045070422537 -1.2610992957746463 0.41551704225352126
H -0.6795654929577464 -2.0467992957746466 -3.2793129577464786
C 1.7843245070422535 -1.2521692957746469 -2.2771629577464787
H 1.4981245070422535 -0.9384492957746469 -3.290282957746479
H 2.241984507042254 -0.38631929577464685 -1.8135029577464787
C 0.9385645070422537 2.0647807042253534 1.9815670422535212
H 1.0508945070422537 1.5807407042253532 2.9609770422535213
H 1.6053245070422537 1.5496207042253536 1.3096170422535214
C 3.9676945070422533 -1.6881692957746468 -3.314052957746479
H 4.795084507042254 -2.398849295774647 -3.4044129577464783
H 3.548404507042253 -1.4816192957746468 -4.303802957746479
H 4.307714507042253 -0.7637192957746466 -2.851282957746479
C 2.344694507042253 -3.565079295774647 -3.101282957746479
H 1.6334345070422536 -4.047909295774646 -2.4251929577464786
H 1.8561845070422536 -3.293109295774647 -4.041792957746479
H 3.1808045070422537 -4.243519295774647 -3.298122957746479
C 3.5156645070422536 -2.648489295774647 -1.1110629577464786
H 3.9311845070422535 -1.748249295774647 -0.6771029577464787
H 2.767184507042254 -3.1044092957746465 -0.45972295774647876
H 4.319224507042254 -3.371819295774647 -1.2863129577464787
C 2.963994507042253 3.381090704225353 2.401027042253521
H 3.3337945070422537 4.369820704225353 2.6912870422535216
H 3.120994507042253 2.671350704225353 3.2183370422535216
H 3.4665445070422534 3.0664207042253535 1.4881370422535212
C 1.2973745070422538 4.282440704225354 0.8488370422535213
H 1.7592145070422538 3.7367207042253527 0.02653704225352116
H 0.23311450704225378 4.4484607042253534 0.6605570422535213
H 1.7921845070422535 5.251370704225354 0.9736770422535213
C 0.7724845070422537 4.194670704225353 3.2772470422535216
H -0.2956954929577462 4.278220704225354 3.057857042253521
H 0.9298945070422537 3.612620704225354 4.190337042253521
H 1.2046345070422537 5.193640704225353 3.3918370422535213
N 2.876084507042253 -2.324759295774647 -2.4576629577464786
N 1.4527845070422536 3.504690704225353 2.1388470422535213
C -3.593905492957746 -3.637819295774647 0.8297870422535213
H -2.8952554929577463 -1.8680692957746468 1.7595270422535212
H -5.022615492957747 -1.2402792957746467 1.1579970422535213
H -4.898275492957747 -1.7933092957746464 -0.48931295774647876
H -3.883675492957746 0.07871070422535364 -1.2758929577464788
H -3.8751654929577466 -4.038529295774646 -0.1505529577464788
H -4.4603554929577465 -3.7321892957746465 1.4932570422535212
H -2.7953554929577464 -4.271929295774647 1.2313670422535212
H -5.648775492957746 1.147700704225353 0.9733970422535213
H -6.189795492957747 0.5254307042253537 -0.5943629577464788
H -5.2178854929577465 2.002970704225354 -0.5139729577464787
C 3.6710445070422537 1.0263707042253536 -0.27764295774647874
O 2.7356545070422538 1.6631507042253526 -0.7327029577464788
O 3.650814507042253 0.3883007042253537 0.7790570422535212
O 4.756604507042254 0.8696707042253538 -0.8334829577464786
O 5.440863525946942 4.2635179706424085 4.1459330748779655
H 5.3588847451641595 4.194601520314484 3.1828664316618425
H 5.44972074574424 5.218076226997475 4.31237234062327
O -5.311051739204944 2.8609652786606614 -4.143366917408931
H -5.696865524310264 2.2375067144024317 -4.776939722046073
H -5.9309764736073625 2.851600251953578 -3.398673984549444
O -8.241140251726641 8.495767662550383 3.9127168540500783
H -8.940141364943592 9.16367147322702 3.978056737009065
H -8.371177299886496 7.943270841563013 4.698082738975518
O 5.974817000253768 10.524787356361175 -7.1988250815876
H 6.85650990564658 10.890274987138607 -7.36616834924031
H 5.949702321095994 10.40493699078184 -6.23759301436278
O -4.7352935151251065 10.69327421697114 -5.57170619186497
H -4.595013119564809 10.62014252961074 -6.527708557879443
H -3.981705382867767 11.219059269365124 -5.264107508675409
O 6.876090664762153 1.7710295263915006 -1.325740896475242
H 7.700137335218095 1.7316489668034458 -0.8174460870024218
H 7.074346637744472 1.271518537102949 -2.1320567682381673
O 5.769785600114192 1.392049400990665 2.0277101675122284
H 5.562242298472864 2.333897538052644 1.933820756199252
H 5.464628525756144 1.173043266908004 2.9209500107253508
O -4.259458823934738 9.010747637280161 1.2344774415851894
H -4.293961581832025 8.224462166401189 1.7997491239487342
H -3.787721233620984 8.709765063522418 0.4433800515761366
O -5.183589227256426 4.8144631484144575 -0.4423157753758059
H -4.842943485108219 5.573384297685063 0.05464149084140463
H -4.457337351310751 4.580855119213029 -1.0397665647116414
O -15.64337055638985 6.494863315314385 1.0597845895035505
H -15.943712343943602 7.3725128874092025 1.3399513187038599
H -15.767276869666565 5.942897483542502 1.846513825255311
O -0.5925421649019349 0.8486307500089811 -7.052043480623852
H -0.6453468295108901 0.6884489321384155 -6.097831339892444
H -0.6842602559844386 -0.03330825445434127 -7.442854596732933
O 9.428886055812084 6.358625461464678 -2.479267384110088
H 9.122248143005473 6.681094982092777 -1.6184805605611376
H 8.959139175348987 6.915066020145208 -3.118543316122618
O 3.5009095905647594 8.668825721677003 12.385099203652715
H 3.4896732586085344 8.392108593297808 13.313683466175908
H 3.2553496671590616 7.867324527271657 11.899035315173235
O 10.322521660205325 -1.0157665500957442 -5.7133895223325215
H 10.117429884268814 -1.2566383130831529 -6.62929645763684
H 9.594561127878077 -1.399597029880082 -5.201813945841273
O -7.22834133425944 -7.505808544994568 -6.2629200941773355
H -7.3077204456855505 -7.513930025421309 -5.297207737869889
H -8.065072353733848 -7.886199633154254 -6.5697519135800935
O -3.045541890380861 6.030659301404688 7.862545168039818
H -3.5028583281743755 6.841676147160853 7.594066661407402
H -2.536016320837142 6.296578232256645 8.642694359217826
O 10.024439195335308 -6.1541564790237135 -0.32964102106220206
H 10.094936118449583 -6.204669465452526 -1.294755511127222
H 9.169171715478488 -5.724070261025965 -0.17962326448733312
O -4.9327095013286275 0.23959785102792264 10.406686702414893
H -5.4568541356464495 0.4207425505397646 9.612063296608971
H -5.0367171143460485 1.0398268233338346 10.943136096688614
O 15.104309078771474 -4.910706857657557 -1.3251015472656311
H 14.819738955849392 -4.095588808112115 -1.7650671906349125
H 15.092344147965935 -5.574239137458272 -2.03117781679555
O 6.967765874521247 7.942016676352665 -6.876848660323892
H 7.303367190366425 8.442181173265473 -7.635910311134253
H 6.143639846391258 8.395278828227246 -6.643757142381451
O -0.10360475308048711 -7.756755334139032 -9.632641734904634
H -0.8089792566292044 -7.636311613849839 -10.28602330557089
H -0.5723202450471279 -7.787020402107084 -8.785085390139663
O -6.6606230689787465 -9.575078127804865 2.0057740339166266
H -6.62596309161762 -9.47696736859182 2.969174429285015
H -7.275326544448294 -8.881893990949003 1.7218773379917682
O 10.490409472517939 -3.198056639167769 5.584962328172526
H 11.331136474853427 -3.6275611081844317 5.803300083814318
H 10.180924113976046 -3.674756895385648 4.800145392276004
O 2.511959231563242 3.6811214904066687 -2.5426960493304516
H 2.74902627330391 3.9614009544809026 -3.439473611850049
H 2.105447610735411 4.4687455341608295 -2.151085768397644
C -3.874140151529661 0.7159564090306935 -5.72188034031212
O -3.1973477206877305 1.673836661071061 -5.482640532574876
O -4.5509325823715905 -0.24192384300967407 -5.961120148049365