146

C -5.3564454929577465 1.0091607042253532 -0.0734429577464788
C -4.079135492957747 0.16955070422535368 -0.19788295774647868
C -4.333545492957747 -1.2789292957746463 0.3017270422535212
C -3.1403854929577464 -2.1745492957746464 0.7330270422535212
C -2.905235492957746 0.902300704225353 0.41966704225352136
C -2.7423854929577463 1.056130704225354 1.8024770422535212
C -1.8861754929577463 1.3499307042253532 -0.4326129577464788
C -1.5304554929577463 1.5279207042253526 2.3254170422535214
H -3.5237954929577464 0.7301007042253529 2.484817042253521
C -0.6776454929577462 1.8010507042253527 0.08546704225352131
H -1.9759254929577463 1.2426607042253535 -1.5115229577464788
C -0.4680254929577463 1.8513207042253539 1.4698070422535212
H -1.3950654929577464 1.5446707042253527 3.404047042253521
H 0.1461845070422536 1.9972507042253538 -0.6030529577464789
C -1.8679654929577463 -2.0866092957746467 -0.08765295774647863
C -0.6628654929577462 -1.814079295774647 0.5787970422535212
C -1.8438954929577462 -2.213429295774647 -1.4808029577464787
C 0.5129345070422537 -1.5763292957746469 -0.13022295774647863
H -0.6401854929577462 -1.7032692957746463 1.6609470422535213
C -0.6547954929577462 -1.9962392957746466 -2.1933129577464787
H -2.7578654929577464 -2.4351492957746466 -2.026182957746479
C 0.5308845070422537 -1.645769295774647 -1.5261029577464789
H 1.4044045070422537 -1.2610992957746463 0.41551704225352126
H -0.6795654929577464 -2.0467992957746466 -3.2793129577464786
C 1.7843245070422535 -1.2521692957746469 -2.2771629577464787
H 1.4981245070422535 -0.9384492957746469 -3.290282957746479
H 2.241984507042254 -0.38631929577464685 -1.8135029577464787
C 0.9385645070422537 2.0647807042253534 1.9815670422535212
H 1.0508945070422537 1.5807407042253532 2.9609770422535213
H 1.6053245070422537 1.5496207042253536 1.3096170422535214
C 3.9676945070422533 -1.6881692957746468 -3.314052957746479
H 4.795084507042254 -2.398849295774647 -3.4044129577464783
H 3.548404507042253 -1.4816192957746468 -4.303802957746479
H 4.307714507042253 -0.7637192957746466 -2.851282957746479
C 2.344694507042253 -3.565079295774647 -3.101282957746479
H 1.6334345070422536 -4.047909295774646 -2.4251929577464786
H 1.8561845070422536 -3.293109295774647 -4.041792957746479
H 3.1808045070422537 -4.243519295774647 -3.298122957746479
C 3.5156645070422536 -2.648489295774647 -1.1110629577464786
H 3.9311845070422535 -1.748249295774647 -0.6771029577464787
H 2.767184507042254 -3.1044092957746465 -0.45972295774647876
H 4.319224507042254 -3.371819295774647 -1.2863129577464787
C 2.963994507042253 3.381090704225353 2.401027042253521
H 3.3337945070422537 4.369820704225353 2.6912870422535216
H 3.120994507042253 2.671350704225353 3.2183370422535216
H 3.4665445070422534 3.0664207042253535 1.4881370422535212
C 1.2973745070422538 4.282440704225354 0.8488370422535213
H 1.7592145070422538 3.7367207042253527 0.02653704225352116
H 0.23311450704225378 4.4484607042253534 0.6605570422535213
H 1.7921845070422535 5.251370704225354 0.9736770422535213
C 0.7724845070422537 4.194670704225353 3.2772470422535216
H -0.2956954929577462 4.278220704225354 3.057857042253521
H 0.9298945070422537 3.612620704225354 4.190337042253521
H 1.2046345070422537 5.193640704225353 3.3918370422535213
N 2.876084507042253 -2.324759295774647 -2.4576629577464786
N 1.4527845070422536 3.504690704225353 2.1388470422535213
C -3.593905492957746 -3.637819295774647 0.8297870422535213
H -2.8952554929577463 -1.8680692957746468 1.7595270422535212
H -5.022615492957747 -1.2402792957746467 1.1579970422535213
H -4.898275492957747 -1.7933092957746464 -0.48931295774647876
H -3.883675492957746 0.07871070422535364 -1.2758929577464788
H -3.8751654929577466 -4.038529295774646 -0.1505529577464788
H -4.4603554929577465 -3.7321892957746465 1.4932570422535212
H -2.7953554929577464 -4.271929295774647 1.2313670422535212
H -5.648775492957746 1.147700704225353 0.9733970422535213
H -6.189795492957747 0.5254307042253537 -0.5943629577464788
H -5.2178854929577465 2.002970704225354 -0.5139729577464787
C 3.6710445070422537 1.0263707042253536 -0.27764295774647874
O 2.7356545070422538 1.6631507042253526 -0.7327029577464788
O 3.650814507042253 0.3883007042253537 0.7790570422535212
O 4.756604507042254 0.8696707042253538 -0.8334829577464786
O 5.360621972932437 5.164195058020974 1.2411777218939073
H 5.2157839769972405 5.187413580860974 0.28334150832156313
H 5.115068907841332 6.053777061940309 1.5366595230716171
O 8.323601566567525 -5.358143832230667 -6.326130673703185
H 9.160932392157113 -5.3106506553413215 -6.811505625226667
H 8.485783586149184 -6.027578379427447 -5.6445763296895475
O 8.82992192408178 -4.841152748954126 2.8292797848930524
H 9.7431703677494 -5.093904357386709 2.6266439996195357
H 8.923667870601275 -4.081817506303616 3.4239087709676075
O 4.20411683269495 -8.839698369236864 -8.314217335681269
H 4.213716357174879 -8.645383839388717 -9.26348919848963
H 3.735617388755227 -8.085698274098599 -7.92568925193486
O 0.6262946211087153 -8.010311889645555 0.8787729891017348
H 1.5529978326498246 -7.744193906957877 0.7819756032401548
H 0.6715401560192125 -8.967290317265665 1.0240557304731932
O -3.2848885500670972 6.99052043556204 4.436704858343073
H -2.7110655029191224 6.527146461383021 3.8082312888786465
H -3.1030094067423337 6.55640996741251 5.283717268503896
O -4.103093332877091 -2.4056753009326517 -8.858189126889599
H -3.621146081840774 -2.4294644617482435 -9.698503520403259
H -3.572298916224315 -2.961588113482134 -8.268121184705343
O 4.752946534000995 -3.4320147290745524 -8.039702589427138
H 4.726414168158394 -2.4738069855424207 -7.897923498239977
H 4.819092194894565 -3.524492565408824 -9.002009476876191
O -7.693686499080506 5.421522408705476 7.295154107359379
H -8.063072248260022 5.522682531588618 8.185259805993736
H -8.434122329763621 5.637397724061212 6.708541310737396
O 1.1028661784370066 -4.493559115612996 -6.960209733580898
H 1.9002915661156208 -4.01030294430498 -6.696498564158116
H 0.4657387033619337 -3.7952626377760903 -7.173311948128365
O -1.3944635059517 4.807622178240663 -12.330667822126923
H -1.0820168643134518 5.245826898671692 -11.524863208078987
H -1.2581284373726254 3.8649743280477105 -12.15237109220138
O 0.1780884485154064 6.143840977250804 -5.436124485259921
H 0.8123712655770814 6.005295502936769 -6.155469893549572
H 0.0425432805791619 7.10325154038231 -5.425132529072766
O 1.1372639945647747 9.60682656877725 0.9031106397903967
H 1.6854217586946887 9.987342403927554 1.6057471900238443
H 1.6492716821562925 9.764251202016705 0.09562840655141802
O -9.802099824589158 7.397938522682857 -1.5180499475750926
H -8.886977150512147 7.660214916883998 -1.3371385290991182
H -9.74190611887798 6.447853079440583 -1.6988158531875357
O 7.650931355891219 6.657131441754874 4.969415410648611
H 7.559524157522835 6.689945147032776 5.933539542559217
H 7.038639946886525 5.95608434719023 4.699982402348743
O 0.15835010291932855 -2.0016845298988466 3.97086761386683
H 0.06143780333599336 -1.9199145198089804 3.0101964794304017
H -0.4371315937868233 -1.324069013311009 4.32470473016098
O -11.86131169838863 2.666089027183671 -8.341473129248685
H -11.887716510758857 2.677981690997896 -7.372902684040338
H -12.205175417679037 1.7905720382521642 -8.57425991785164
O -3.5609163227749723 -11.806224492546718 3.2642034336653163
H -4.405033566131033 -11.87481337329148 3.7350845246077626
H -3.14033475709534 -11.023390068689785 3.650523709777058
O 8.295152495830655 9.22126482581902 1.63648425210239
H 8.213775319352912 8.62474685722686 0.877200757487107
H 9.234404863272895 9.459266137762823 1.6475436402941268
O 8.15507615859607 0.6801906742961645 -4.802323150265602
H 7.743342116070993 0.11965259179224064 -4.127608771295669
H 7.600925016730809 0.5482908819083802 -5.586211472054803
O -6.40175362089166 -0.04292826396428273 -12.544489784473488
H -7.227174254951001 -0.22487641524483504 -13.018349472582386
H -6.686197365173907 0.11841844282423297 -11.632337965505178
O -7.3382836968895795 6.778571709555601 3.075111005266313
H -7.234132032010819 6.773847700033518 4.038489161203543
H -8.28190599564109 6.6038956805712665 2.940845646751236
O -6.885604536839611 10.944541324241655 4.6199965579148365
H -7.307650813483968 11.297037013483836 5.41786314221093
H -5.943428945445197 10.919770085788194 4.845059849071047
O -3.881873750227954 3.1860848594238877 -0.5091725178784365
H -4.659272017049781 3.1963724560703977 0.0691988654019422
H -3.1450179702474257 3.3920918719132698 0.08544215955097689
C 7.6492667595245845 5.734586506326622 9.075634164265079
O 7.075249307814676 4.70607729294689 9.28892040485615
O 8.22328421123449 6.763095719706353 8.862347923674008