146

C -5.3564454929577465 1.0091607042253532 -0.0734429577464788
C -4.079135492957747 0.16955070422535368 -0.19788295774647868
C -4.333545492957747 -1.2789292957746463 0.3017270422535212
C -3.1403854929577464 -2.1745492957746464 0.7330270422535212
C -2.905235492957746 0.902300704225353 0.41966704225352136
C -2.7423854929577463 1.056130704225354 1.8024770422535212
C -1.8861754929577463 1.3499307042253532 -0.4326129577464788
C -1.5304554929577463 1.5279207042253526 2.3254170422535214
H -3.5237954929577464 0.7301007042253529 2.484817042253521
C -0.6776454929577462 1.8010507042253527 0.08546704225352131
H -1.9759254929577463 1.2426607042253535 -1.5115229577464788
C -0.4680254929577463 1.8513207042253539 1.4698070422535212
H -1.3950654929577464 1.5446707042253527 3.404047042253521
H 0.1461845070422536 1.9972507042253538 -0.6030529577464789
C -1.8679654929577463 -2.0866092957746467 -0.08765295774647863
C -0.6628654929577462 -1.814079295774647 0.5787970422535212
C -1.8438954929577462 -2.213429295774647 -1.4808029577464787
C 0.5129345070422537 -1.5763292957746469 -0.13022295774647863
H -0.6401854929577462 -1.7032692957746463 1.6609470422535213
C -0.6547954929577462 -1.9962392957746466 -2.1933129577464787
H -2.7578654929577464 -2.4351492957746466 -2.026182957746479
C 0.5308845070422537 -1.645769295774647 -1.5261029577464789
H 1.4044045070422537 -1.2610992957746463 0.41551704225352126
H -0.6795654929577464 -2.0467992957746466 -3.2793129577464786
C 1.7843245070422535 -1.2521692957746469 -2.2771629577464787
H 1.4981245070422535 -0.9384492957746469 -3.290282957746479
H 2.241984507042254 -0.38631929577464685 -1.8135029577464787
C 0.9385645070422537 2.0647807042253534 1.9815670422535212
H 1.0508945070422537 1.5807407042253532 2.9609770422535213
H 1.6053245070422537 1.5496207042253536 1.3096170422535214
C 3.9676945070422533 -1.6881692957746468 -3.314052957746479
H 4.795084507042254 -2.398849295774647 -3.4044129577464783
H 3.548404507042253 -1.4816192957746468 -4.303802957746479
H 4.307714507042253 -0.7637192957746466 -2.851282957746479
C 2.344694507042253 -3.565079295774647 -3.101282957746479
H 1.6334345070422536 -4.047909295774646 -2.4251929577464786
H 1.8561845070422536 -3.293109295774647 -4.041792957746479
H 3.1808045070422537 -4.243519295774647 -3.298122957746479
C 3.5156645070422536 -2.648489295774647 -1.1110629577464786
H 3.9311845070422535 -1.748249295774647 -0.6771029577464787
H 2.767184507042254 -3.1044092957746465 -0.45972295774647876
H 4.319224507042254 -3.371819295774647 -1.2863129577464787
C 2.963994507042253 3.381090704225353 2.401027042253521
H 3.3337945070422537 4.369820704225353 2.6912870422535216
H 3.120994507042253 2.671350704225353 3.2183370422535216
H 3.4665445070422534 3.0664207042253535 1.4881370422535212
C 1.2973745070422538 4.282440704225354 0.8488370422535213
H 1.7592145070422538 3.7367207042253527 0.02653704225352116
H 0.23311450704225378 4.4484607042253534 0.6605570422535213
H 1.7921845070422535 5.251370704225354 0.9736770422535213
C 0.7724845070422537 4.194670704225353 3.2772470422535216
H -0.2956954929577462 4.278220704225354 3.057857042253521
H 0.9298945070422537 3.612620704225354 4.190337042253521
H 1.2046345070422537 5.193640704225353 3.3918370422535213
N 2.876084507042253 -2.324759295774647 -2.4576629577464786
N 1.4527845070422536 3.504690704225353 2.1388470422535213
C -3.593905492957746 -3.637819295774647 0.8297870422535213
H -2.8952554929577463 -1.8680692957746468 1.7595270422535212
H -5.022615492957747 -1.2402792957746467 1.1579970422535213
H -4.898275492957747 -1.7933092957746464 -0.48931295774647876
H -3.883675492957746 0.07871070422535364 -1.2758929577464788
H -3.8751654929577466 -4.038529295774646 -0.1505529577464788
H -4.4603554929577465 -3.7321892957746465 1.4932570422535212
H -2.7953554929577464 -4.271929295774647 1.2313670422535212
H -5.648775492957746 1.147700704225353 0.9733970422535213
H -6.189795492957747 0.5254307042253537 -0.5943629577464788
H -5.2178854929577465 2.002970704225354 -0.5139729577464787
C 3.6710445070422537 1.0263707042253536 -0.27764295774647874
O 2.7356545070422538 1.6631507042253526 -0.7327029577464788
O 3.650814507042253 0.3883007042253537 0.7790570422535212
O 4.756604507042254 0.8696707042253538 -0.8334829577464786
O -8.001416488987394 -9.63489390025153 4.165052508687692
H -8.912227913173876 -9.333713028540602 4.0283777524711954
H -7.7859771368273725 -9.330553473387118 5.0594376239578756
O -1.7565409519927742 9.102157189620115 -0.7998826140497701
H -2.208563714025547 8.662367012377691 -0.06420103924628151
H -1.1192637546603132 9.689014900496714 -0.365788447716284
O 5.551956601686148 -1.5384846701179433 -1.1238027789535245
H 6.236985121965574 -1.5659266866533075 -0.43900337837533066
H 6.031230679897479 -1.7364964479559981 -1.9423683768698374
O 2.595536309977112 -2.9804260821935653 11.656839389688438
H 2.3997196741105253 -3.586720665943459 12.386928479959915
H 3.5473577586415286 -3.089068043354702 11.511255055237811
O 9.418649005598969 -7.567898326541995 0.5291809352138415
H 10.064143252198033 -7.953022554192329 -0.08236126593358617
H 8.689539871819147 -8.2061392261766 0.5324010862111594
O 5.72356028817248 1.6884933975261063 1.252434975932861
H 5.823052546387409 1.851208035101266 0.3023862434069554
H 4.7929149476449435 1.4370635925409103 1.3506401062443307
O -5.013869277912941 4.658134907749902 -8.884795120930802
H -5.134581315347004 4.536222069335569 -9.83848963215978
H -4.056084517609348 4.762822288320872 -8.781592167584606
O -8.832983349324067 -10.625158117314728 -8.111258306844674
H -9.631199670335443 -11.073928839382328 -7.794362581430164
H -8.836199532307047 -10.788505954130782 -9.066386091318844
O 0.3969024008281874 -4.489925152161626 -11.399778221091672
H 0.7949846020809161 -3.953002879757735 -12.101356720863741
H 1.143385791877738 -4.987864139468863 -11.034017020160515
O 8.161107206334586 -6.150363921187267 -0.2882571896173907
H 8.557550598110359 -6.0822270933516105 -1.1698224831208366
H 7.921544212652144 -7.086103796932359 -0.21104060267866492
O -0.2999036214687387 -8.079788769450126 -1.705402684169972
H -0.7327033890989711 -7.498174247441563 -1.0624592451117842
H -0.15583042891365873 -8.903589286879146 -1.2159565002327994
O -6.076062794346383 7.965006542079482 0.44095727010435937
H -5.885248774236182 7.315142000540385 -0.25203150634123705
H -5.961108821646838 8.819454619012173 -0.0013842408197426437
O -11.210807278123102 2.13368994696788 4.7430067351808685
H -10.948225575589287 1.7098142745617788 3.912135132141796
H -11.32272780730111 1.3934680943435995 5.358236243857098
O -3.8436534810598864 7.3349087679182166 0.6111940382037927
H -3.991473318526141 7.539383035754102 1.5467724295449083
H -4.260204658377075 6.468112759815664 0.49240118777439074
O -3.098220402279071 2.1362216012400577 -4.171229957747396
H -3.1661859627011406 1.1743063523739155 -4.076008670761226
H -2.4669570020880585 2.3955002278520863 -3.4833033209165043
O -3.16134297322688 -8.04408722392381 -5.4304630649730665
H -3.2654741116156867 -8.939915730135443 -5.0760405059048175
H -3.8549441914810076 -7.534259187614531 -4.985542097014245
O -2.304513113743679 -1.0332589161149182 10.434410427459634
H -2.7925083307740453 -1.2263975830381133 9.619839693640515
H -1.7010146885205784 -0.31845370326345 10.181813707897394
O 11.09359769243156 4.953858118166833 4.121326789350123
H 11.66666334068418 5.2239695043458365 4.8545409182028525
H 10.842732679771073 5.7897044822080925 3.7001504065342554
O -3.214695972537155 -7.688262978952691 11.496473083443933
H -3.317998155456788 -7.636342568318943 12.458554310193351
H -3.6212522524123933 -8.536254713634476 11.26284099338483
O 5.8832829138585065 -6.8508346974644745 8.805201307250302
H 5.822329647929974 -7.056581248044932 9.750145968697147
H 4.969556020185506 -6.9224312235462 8.49065553072212
O 7.66517595273081 1.0321569218304836 7.960183459087689
H 8.223024824000104 0.608962908581355 7.290348538473907
H 8.25423387196712 1.1384441312622204 8.722204286359624
O -10.893164455681955 -0.9202946760029249 5.383956779785201
H -10.249853985841343 -0.2356001607152347 5.6212591544644415
H -10.476797272467682 -1.3860138171143497 4.643209863055439
O -5.625468844934707 -8.043121318088854 4.6352540621502305
H -5.18474685275045 -8.717104459621588 5.174214364431215
H -5.037615148207112 -7.931730152649298 3.8730323202629258
O 11.083615035307048 0.1294744959215457 2.2880473737908233
H 11.237945081314201 0.4678072887259237 1.3932398441440164
H 10.573532595547313 0.831636776120221 2.7190299502541286
C 4.4331388965691465 -3.6945266453578016 6.95980263035445
O 4.575110377544953 -3.199859265793439 8.040527636766564
O 4.291167415593341 -4.189194024922165 5.8790776239423375