146

C -5.3564454929577465 1.0091607042253532 -0.0734429577464788
C -4.079135492957747 0.16955070422535368 -0.19788295774647868
C -4.333545492957747 -1.2789292957746463 0.3017270422535212
C -3.1403854929577464 -2.1745492957746464 0.7330270422535212
C -2.905235492957746 0.902300704225353 0.41966704225352136
C -2.7423854929577463 1.056130704225354 1.8024770422535212
C -1.8861754929577463 1.3499307042253532 -0.4326129577464788
C -1.5304554929577463 1.5279207042253526 2.3254170422535214
H -3.5237954929577464 0.7301007042253529 2.484817042253521
C -0.6776454929577462 1.8010507042253527 0.08546704225352131
H -1.9759254929577463 1.2426607042253535 -1.5115229577464788
C -0.4680254929577463 1.8513207042253539 1.4698070422535212
H -1.3950654929577464 1.5446707042253527 3.404047042253521
H 0.1461845070422536 1.9972507042253538 -0.6030529577464789
C -1.8679654929577463 -2.0866092957746467 -0.08765295774647863
C -0.6628654929577462 -1.814079295774647 0.5787970422535212
C -1.8438954929577462 -2.213429295774647 -1.4808029577464787
C 0.5129345070422537 -1.5763292957746469 -0.13022295774647863
H -0.6401854929577462 -1.7032692957746463 1.6609470422535213
C -0.6547954929577462 -1.9962392957746466 -2.1933129577464787
H -2.7578654929577464 -2.4351492957746466 -2.026182957746479
C 0.5308845070422537 -1.645769295774647 -1.5261029577464789
H 1.4044045070422537 -1.2610992957746463 0.41551704225352126
H -0.6795654929577464 -2.0467992957746466 -3.2793129577464786
C 1.7843245070422535 -1.2521692957746469 -2.2771629577464787
H 1.4981245070422535 -0.9384492957746469 -3.290282957746479
H 2.241984507042254 -0.38631929577464685 -1.8135029577464787
C 0.9385645070422537 2.0647807042253534 1.9815670422535212
H 1.0508945070422537 1.5807407042253532 2.9609770422535213
H 1.6053245070422537 1.5496207042253536 1.3096170422535214
C 3.9676945070422533 -1.6881692957746468 -3.314052957746479
H 4.795084507042254 -2.398849295774647 -3.4044129577464783
H 3.548404507042253 -1.4816192957746468 -4.303802957746479
H 4.307714507042253 -0.7637192957746466 -2.851282957746479
C 2.344694507042253 -3.565079295774647 -3.101282957746479
H 1.6334345070422536 -4.047909295774646 -2.4251929577464786
H 1.8561845070422536 -3.293109295774647 -4.041792957746479
H 3.1808045070422537 -4.243519295774647 -3.298122957746479
C 3.5156645070422536 -2.648489295774647 -1.1110629577464786
H 3.9311845070422535 -1.748249295774647 -0.6771029577464787
H 2.767184507042254 -3.1044092957746465 -0.45972295774647876
H 4.319224507042254 -3.371819295774647 -1.2863129577464787
C 2.963994507042253 3.381090704225353 2.401027042253521
H 3.3337945070422537 4.369820704225353 2.6912870422535216
H 3.120994507042253 2.671350704225353 3.2183370422535216
H 3.4665445070422534 3.0664207042253535 1.4881370422535212
C 1.2973745070422538 4.282440704225354 0.8488370422535213
H 1.7592145070422538 3.7367207042253527 0.02653704225352116
H 0.23311450704225378 4.4484607042253534 0.6605570422535213
H 1.7921845070422535 5.251370704225354 0.9736770422535213
C 0.7724845070422537 4.194670704225353 3.2772470422535216
H -0.2956954929577462 4.278220704225354 3.057857042253521
H 0.9298945070422537 3.612620704225354 4.190337042253521
H 1.2046345070422537 5.193640704225353 3.3918370422535213
N 2.876084507042253 -2.324759295774647 -2.4576629577464786
N 1.4527845070422536 3.504690704225353 2.1388470422535213
C -3.593905492957746 -3.637819295774647 0.8297870422535213
H -2.8952554929577463 -1.8680692957746468 1.7595270422535212
H -5.022615492957747 -1.2402792957746467 1.1579970422535213
H -4.898275492957747 -1.7933092957746464 -0.48931295774647876
H -3.883675492957746 0.07871070422535364 -1.2758929577464788
H -3.8751654929577466 -4.038529295774646 -0.1505529577464788
H -4.4603554929577465 -3.7321892957746465 1.4932570422535212
H -2.7953554929577464 -4.271929295774647 1.2313670422535212
H -5.648775492957746 1.147700704225353 0.9733970422535213
H -6.189795492957747 0.5254307042253537 -0.5943629577464788
H -5.2178854929577465 2.002970704225354 -0.5139729577464787
C 3.6710445070422537 1.0263707042253536 -0.27764295774647874
O 2.7356545070422538 1.6631507042253526 -0.7327029577464788
O 3.650814507042253 0.3883007042253537 0.7790570422535212
O 4.756604507042254 0.8696707042253538 -0.8334829577464786
O -8.074453951427898 1.7356443796158745 9.502109554115423
H -8.347131516316017 1.4163110328173016 10.375402469539054
H -8.361875193028936 2.6609702045024717 9.49101487185523
O -1.0866860795599473 -9.33716521640881 -0.24810330556819604
H -1.4750764149507472 -9.742918445890464 -1.0377137291570886
H -1.161899808902782 -8.38526851003627 -0.4130199500145617
O -3.036261188251513 6.669134993050818 -10.730377550240187
H -3.578270202534372 6.7574360034556005 -9.9320063853691
H -3.482044322362354 7.233773022429683 -11.379548742932428
O 3.418993927089108 -4.1841786113491795 -8.19197546965637
H 3.7174777106805803 -3.269427070819988 -8.077500988079064
H 2.9107949646540794 -4.163078196390106 -9.016748487745902
O 5.43749366526178 -0.41386538755545765 14.313693654312885
H 5.734647932216862 -1.1087247257271917 14.920189489983606
H 6.232272834969347 -0.19034416980858393 13.806420275437251
O 5.97367529342219 -5.601099267120555 -11.642649978884144
H 6.55050604308542 -5.6808064364713955 -10.868130508310916
H 5.247923805630229 -6.2161180662048 -11.458262888661626
O -3.8821343647685316 11.909084076957493 1.8947560909822945
H -4.180451438352589 12.65295470504179 1.3501178907229698
H -4.44229124411189 11.957381422297875 2.6839668240931545
O -1.737968615034692 -3.654472508728893 -8.637761980643692
H -1.0216255756039083 -3.162904532372505 -8.208598921445965
H -1.3657942216216163 -4.538596951649116 -8.774773420379994
O -6.10561352756163 6.044229503864705 -8.112988159711016
H -6.272844662489168 5.727018451807345 -7.21277804375835
H -5.289481836619487 5.591134242552229 -8.372979874033025
O 8.739424998075217 -0.36058245348681184 5.358278604442641
H 9.545087934478941 -0.10884836179109803 5.834203532223761
H 8.269333447256177 0.47761267994427103 5.2341625440757475
O -2.227315539700215 8.04093152783985 -5.2123743369604965
H -1.3482691812052614 8.192387431781267 -4.833816592781288
H -2.738430077095339 8.81593247897517 -4.934710151832634
O -3.1966640630542624 -9.899074570328072 3.814445896264079
H -3.471881275328666 -10.295573528071492 4.65469075312206
H -3.599555678931244 -10.470022370744863 3.1431345680747937
O -7.869054422019663 2.8679403194286 7.208285852130079
H -8.002534479011892 2.373053836403468 6.385949059687732
H -6.905708101982359 2.938959165481916 7.284980933301165
O -0.2705250888096269 -12.714440127139508 7.316481583587918
H -0.30627523586404815 -13.110521824545417 8.200115315892
H 0.6611197168572671 -12.471857088517526 7.2062392607403805
O -1.1251561016382354 -3.847100310769412 0.9630960210501857
H -1.0552712211047697 -4.15754245041664 1.8783605392655895
H -0.781290763938576 -4.585704565595684 0.43851778228953386
O 8.010889667384648 -7.771684651135208 -8.022839303554596
H 8.413121071234443 -7.920045696474015 -8.89184232707235
H 8.172247477926915 -6.83243676927809 -7.847513841330991
O 8.347959906322771 -5.924144280717273 -4.804460535534409
H 9.030277626235955 -5.503328440696399 -4.2601041129765385
H 7.699964110732084 -6.246142280023443 -4.159960200670559
O 4.041680594119251 7.794232694037895 0.39812289118303335
H 3.583077277994741 8.224373464208563 -0.3391893040074355
H 4.967061132259285 8.058107167058049 0.28409190232475623
O 3.030826218620808 -0.39012049550486405 12.384504305632706
H 3.555271739805372 -0.20861063179580341 13.1788458074981
H 3.3328746487148573 0.2747955293134563 11.747624905653776
O 1.4930910874162016 4.815152008841727 7.52731614942269
H 2.3746582455840946 4.4181163584043315 7.591887000598289
H 1.6132835279018 5.552998592628165 6.910795151933717
O -5.709982217872775 4.680276634535115 5.128058414204714
H -5.7537830566285475 4.2711528678120745 6.005364852643782
H -4.971334811493318 5.303648659112718 5.197118332557704
O -4.82182367477674 -7.238801925903962 3.4715836308769683
H -4.61725232044502 -7.294056835526746 4.417133636349691
H -3.9920490579817427 -7.488044771821091 3.037631982208771
O -6.360805676080077 1.798636930981268 -2.0655456073760017
H -7.148820245489592 2.3591268819795 -2.0034858770483694
H -6.701639216872477 0.9503712437201961 -2.3868550619309783
O -3.1488830515615978 -1.0239038493950825 8.150351964978595
H -3.110369056782033 -1.9555806620600968 7.886794863293818
H -2.295799736942064 -0.6642624759741934 7.864224571774649
C -1.7195336187242862 -8.215497602749405 -2.9182059679756702
O -1.758736943384453 -7.037361796311247 -3.126238124682036
O -1.6803302940641194 -9.393633409187563 -2.7101738112693043