146

C -5.3564454929577465 1.0091607042253532 -0.0734429577464788
C -4.079135492957747 0.16955070422535368 -0.19788295774647868
C -4.333545492957747 -1.2789292957746463 0.3017270422535212
C -3.1403854929577464 -2.1745492957746464 0.7330270422535212
C -2.905235492957746 0.902300704225353 0.41966704225352136
C -2.7423854929577463 1.056130704225354 1.8024770422535212
C -1.8861754929577463 1.3499307042253532 -0.4326129577464788
C -1.5304554929577463 1.5279207042253526 2.3254170422535214
H -3.5237954929577464 0.7301007042253529 2.484817042253521
C -0.6776454929577462 1.8010507042253527 0.08546704225352131
H -1.9759254929577463 1.2426607042253535 -1.5115229577464788
C -0.4680254929577463 1.8513207042253539 1.4698070422535212
H -1.3950654929577464 1.5446707042253527 3.404047042253521
H 0.1461845070422536 1.9972507042253538 -0.6030529577464789
C -1.8679654929577463 -2.0866092957746467 -0.08765295774647863
C -0.6628654929577462 -1.814079295774647 0.5787970422535212
C -1.8438954929577462 -2.213429295774647 -1.4808029577464787
C 0.5129345070422537 -1.5763292957746469 -0.13022295774647863
H -0.6401854929577462 -1.7032692957746463 1.6609470422535213
C -0.6547954929577462 -1.9962392957746466 -2.1933129577464787
H -2.7578654929577464 -2.4351492957746466 -2.026182957746479
C 0.5308845070422537 -1.645769295774647 -1.5261029577464789
H 1.4044045070422537 -1.2610992957746463 0.41551704225352126
H -0.6795654929577464 -2.0467992957746466 -3.2793129577464786
C 1.7843245070422535 -1.2521692957746469 -2.2771629577464787
H 1.4981245070422535 -0.9384492957746469 -3.290282957746479
H 2.241984507042254 -0.38631929577464685 -1.8135029577464787
C 0.9385645070422537 2.0647807042253534 1.9815670422535212
H 1.0508945070422537 1.5807407042253532 2.9609770422535213
H 1.6053245070422537 1.5496207042253536 1.3096170422535214
C 3.9676945070422533 -1.6881692957746468 -3.314052957746479
H 4.795084507042254 -2.398849295774647 -3.4044129577464783
H 3.548404507042253 -1.4816192957746468 -4.303802957746479
H 4.307714507042253 -0.7637192957746466 -2.851282957746479
C 2.344694507042253 -3.565079295774647 -3.101282957746479
H 1.6334345070422536 -4.047909295774646 -2.4251929577464786
H 1.8561845070422536 -3.293109295774647 -4.041792957746479
H 3.1808045070422537 -4.243519295774647 -3.298122957746479
C 3.5156645070422536 -2.648489295774647 -1.1110629577464786
H 3.9311845070422535 -1.748249295774647 -0.6771029577464787
H 2.767184507042254 -3.1044092957746465 -0.45972295774647876
H 4.319224507042254 -3.371819295774647 -1.2863129577464787
C 2.963994507042253 3.381090704225353 2.401027042253521
H 3.3337945070422537 4.369820704225353 2.6912870422535216
H 3.120994507042253 2.671350704225353 3.2183370422535216
H 3.4665445070422534 3.0664207042253535 1.4881370422535212
C 1.2973745070422538 4.282440704225354 0.8488370422535213
H 1.7592145070422538 3.7367207042253527 0.02653704225352116
H 0.23311450704225378 4.4484607042253534 0.6605570422535213
H 1.7921845070422535 5.251370704225354 0.9736770422535213
C 0.7724845070422537 4.194670704225353 3.2772470422535216
H -0.2956954929577462 4.278220704225354 3.057857042253521
H 0.9298945070422537 3.612620704225354 4.190337042253521
H 1.2046345070422537 5.193640704225353 3.3918370422535213
N 2.876084507042253 -2.324759295774647 -2.4576629577464786
N 1.4527845070422536 3.504690704225353 2.1388470422535213
C -3.593905492957746 -3.637819295774647 0.8297870422535213
H -2.8952554929577463 -1.8680692957746468 1.7595270422535212
H -5.022615492957747 -1.2402792957746467 1.1579970422535213
H -4.898275492957747 -1.7933092957746464 -0.48931295774647876
H -3.883675492957746 0.07871070422535364 -1.2758929577464788
H -3.8751654929577466 -4.038529295774646 -0.1505529577464788
H -4.4603554929577465 -3.7321892957746465 1.4932570422535212
H -2.7953554929577464 -4.271929295774647 1.2313670422535212
H -5.648775492957746 1.147700704225353 0.9733970422535213
H -6.189795492957747 0.5254307042253537 -0.5943629577464788
H -5.2178854929577465 2.002970704225354 -0.5139729577464787
C 3.6710445070422537 1.0263707042253536 -0.27764295774647874
O 2.7356545070422538 1.6631507042253526 -0.7327029577464788
O 3.650814507042253 0.3883007042253537 0.7790570422535212
O 4.756604507042254 0.8696707042253538 -0.8334829577464786
O -0.8978240234138206 3.589684050187963 5.763664301859517
H -1.159139024090967 3.61498711904908 4.830904106510619
H -1.0836736227960464 2.6779498869378626 6.03415032048544
O 4.871045297167501 -12.650725167084786 1.312671917523558
H 4.989156222081727 -12.971346084831161 0.40590877677544723
H 5.357735048599562 -13.291384130034832 1.8527192518774727
O -0.2545543531615557 -1.9603147009691875 -11.855018755068574
H -0.4563667091902417 -1.2653027090293567 -12.499376932570792
H -0.7718993161057135 -1.7127485583326736 -11.073976413939498
O -2.3443135977519183 -7.437019949205255 2.7582093714147815
H -1.965839542239841 -7.6625316930787 3.621267422521079
H -3.144173794155499 -7.9813018938977525 2.703962019488838
O 5.579966105055296 -7.43854381311596 -10.556021150541076
H 5.768152584648622 -7.424545429717685 -11.506472228219724
H 5.655303061793235 -8.374386460694776 -10.31626121597707
O 0.9284867436447231 9.315994567633643 -5.019229762515971
H 0.9226044925418755 9.64449203860272 -4.107625589868169
H 0.9108175906210279 8.352165861288608 -4.920822597346552
O -1.0344104251813133 10.277581363514617 -6.196512790984414
H -0.5835095619698274 10.069165271496573 -7.028509486316231
H -1.7232432690880344 9.599575135406328 -6.127383838281879
O 7.443088895364353 5.065484294156149 -7.716659224047616
H 6.955998295604709 5.865864886581215 -7.9638454125677125
H 6.764324913491281 4.485229359807152 -7.340433743284479
O -8.070110459078048 -6.945970763113902 4.923842570607648
H -8.050380794926411 -6.27966218242024 5.627128410466849
H -8.299521376651184 -6.440941828090083 4.129312300582043
O -3.090560902429 3.889421376134863 -6.568770076282798
H -2.19785865751542 3.57472061447152 -6.776167013181025
H -3.45465421730714 4.144693568952134 -7.429719615997703
O -10.560038306865813 0.9172150003804989 8.948647762067534
H -11.346977797809359 0.6552937197257025 8.447558112170764
H -10.04518070001615 0.09943199723902651 9.02016383537944
O -4.576412568745084 6.1880258650323405 14.20976794279759
H -4.968124916025363 5.774820719322134 14.993853589552318
H -3.689660116061389 5.8006114023698405 14.159349036825969
O 7.666414595090555 9.385518127058585 9.691941311278843
H 7.657507175022671 9.358173903150057 10.660517745116966
H 7.1010581619606725 8.64284467214466 9.43161423396096
O -3.556806912138957 8.051812904191507 13.560140248525409
H -4.108630936954443 8.79854956137485 13.837344085719423
H -2.6524701173702043 8.395116837516422 13.61740555469785
O 4.182703800603086 9.543525316803553 5.273977482076257
H 4.6321022193493775 9.475392593861578 4.4181934262579405
H 3.24124917141795 9.50675542426265 5.047541838927021
O -7.546678750406782 12.457006514074802 -0.20889170299065674
H -7.507738566732044 12.937939495823787 0.6314382834202819
H -6.641532184569689 12.509563227398647 -0.55081191376784
O -9.188406008135166 0.5699134439700888 -8.268489217796233
H -9.301055266771645 0.6852251373257658 -9.223989461021793
H -9.956489521926555 0.041485887436115476 -8.004341574162211
O -8.101017833244352 -3.935265604848661 -0.4252103088547635
H -8.765015859043777 -4.5063246773864725 -0.8398975576419946
H -7.998015578059799 -4.3042151093681715 0.4648620156457256
O 6.090644768150945 3.2470656925149006 7.213297482418581
H 6.024509926323611 2.9811220105831318 6.2838527569846
H 5.43818431527763 3.958186825297447 7.300268950420556
O -1.6844189644673664 4.413472883940858 -2.4762333789081303
H -2.4298721831291434 5.032351772588173 -2.4602403531324177
H -0.9196237696862541 4.973413255740342 -2.677521814663333
O -2.162303199889913 -4.758644091621428 3.8991045594428364
H -1.3978241283535153 -4.495781631185548 3.364836431087378
H -2.1841033744140748 -4.104933230564579 4.614051275518258
O 0.6475479527502319 -3.784229951866595 2.9916632726837267
H -0.15823352486327724 -3.3074190425831085 2.741993642926229
H 1.2388422765394236 -3.089555251910219 3.3184048038596723
O -5.28273966631795 -7.477978943125086 -3.0119101958052106
H -5.97928028913296 -6.971089220018602 -3.455600770730471
H -5.080429326160431 -8.19239624509653 -3.6345179288194984
O -2.0694567998661144 6.806609326260146 -8.346934975977035
H -1.4502967186304692 7.3336440754824945 -8.87404267257841
H -2.087024849565674 5.948008219528733 -8.79577508943543
C -6.827936821524593 0.3223106882772462 -8.772812719620019
O -6.9591918023465436 0.31898211644336616 -7.583031517919903
O -6.696681840702642 0.3256392601111271 -9.962593921320137