146

C -5.3564454929577465 1.0091607042253532 -0.0734429577464788
C -4.079135492957747 0.16955070422535368 -0.19788295774647868
C -4.333545492957747 -1.2789292957746463 0.3017270422535212
C -3.1403854929577464 -2.1745492957746464 0.7330270422535212
C -2.905235492957746 0.902300704225353 0.41966704225352136
C -2.7423854929577463 1.056130704225354 1.8024770422535212
C -1.8861754929577463 1.3499307042253532 -0.4326129577464788
C -1.5304554929577463 1.5279207042253526 2.3254170422535214
H -3.5237954929577464 0.7301007042253529 2.484817042253521
C -0.6776454929577462 1.8010507042253527 0.08546704225352131
H -1.9759254929577463 1.2426607042253535 -1.5115229577464788
C -0.4680254929577463 1.8513207042253539 1.4698070422535212
H -1.3950654929577464 1.5446707042253527 3.404047042253521
H 0.1461845070422536 1.9972507042253538 -0.6030529577464789
C -1.8679654929577463 -2.0866092957746467 -0.08765295774647863
C -0.6628654929577462 -1.814079295774647 0.5787970422535212
C -1.8438954929577462 -2.213429295774647 -1.4808029577464787
C 0.5129345070422537 -1.5763292957746469 -0.13022295774647863
H -0.6401854929577462 -1.7032692957746463 1.6609470422535213
C -0.6547954929577462 -1.9962392957746466 -2.1933129577464787
H -2.7578654929577464 -2.4351492957746466 -2.026182957746479
C 0.5308845070422537 -1.645769295774647 -1.5261029577464789
H 1.4044045070422537 -1.2610992957746463 0.41551704225352126
H -0.6795654929577464 -2.0467992957746466 -3.2793129577464786
C 1.7843245070422535 -1.2521692957746469 -2.2771629577464787
H 1.4981245070422535 -0.9384492957746469 -3.290282957746479
H 2.241984507042254 -0.38631929577464685 -1.8135029577464787
C 0.9385645070422537 2.0647807042253534 1.9815670422535212
H 1.0508945070422537 1.5807407042253532 2.9609770422535213
H 1.6053245070422537 1.5496207042253536 1.3096170422535214
C 3.9676945070422533 -1.6881692957746468 -3.314052957746479
H 4.795084507042254 -2.398849295774647 -3.4044129577464783
H 3.548404507042253 -1.4816192957746468 -4.303802957746479
H 4.307714507042253 -0.7637192957746466 -2.851282957746479
C 2.344694507042253 -3.565079295774647 -3.101282957746479
H 1.6334345070422536 -4.047909295774646 -2.4251929577464786
H 1.8561845070422536 -3.293109295774647 -4.041792957746479
H 3.1808045070422537 -4.243519295774647 -3.298122957746479
C 3.5156645070422536 -2.648489295774647 -1.1110629577464786
H 3.9311845070422535 -1.748249295774647 -0.6771029577464787
H 2.767184507042254 -3.1044092957746465 -0.45972295774647876
H 4.319224507042254 -3.371819295774647 -1.2863129577464787
C 2.963994507042253 3.381090704225353 2.401027042253521
H 3.3337945070422537 4.369820704225353 2.6912870422535216
H 3.120994507042253 2.671350704225353 3.2183370422535216
H 3.4665445070422534 3.0664207042253535 1.4881370422535212
C 1.2973745070422538 4.282440704225354 0.8488370422535213
H 1.7592145070422538 3.7367207042253527 0.02653704225352116
H 0.23311450704225378 4.4484607042253534 0.6605570422535213
H 1.7921845070422535 5.251370704225354 0.9736770422535213
C 0.7724845070422537 4.194670704225353 3.2772470422535216
H -0.2956954929577462 4.278220704225354 3.057857042253521
H 0.9298945070422537 3.612620704225354 4.190337042253521
H 1.2046345070422537 5.193640704225353 3.3918370422535213
N 2.876084507042253 -2.324759295774647 -2.4576629577464786
N 1.4527845070422536 3.504690704225353 2.1388470422535213
C -3.593905492957746 -3.637819295774647 0.8297870422535213
H -2.8952554929577463 -1.8680692957746468 1.7595270422535212
H -5.022615492957747 -1.2402792957746467 1.1579970422535213
H -4.898275492957747 -1.7933092957746464 -0.48931295774647876
H -3.883675492957746 0.07871070422535364 -1.2758929577464788
H -3.8751654929577466 -4.038529295774646 -0.1505529577464788
H -4.4603554929577465 -3.7321892957746465 1.4932570422535212
H -2.7953554929577464 -4.271929295774647 1.2313670422535212
H -5.648775492957746 1.147700704225353 0.9733970422535213
H -6.189795492957747 0.5254307042253537 -0.5943629577464788
H -5.2178854929577465 2.002970704225354 -0.5139729577464787
C 3.6710445070422537 1.0263707042253536 -0.27764295774647874
O 2.7356545070422538 1.6631507042253526 -0.7327029577464788
O 3.650814507042253 0.3883007042253537 0.7790570422535212
O 4.756604507042254 0.8696707042253538 -0.8334829577464786
O -2.5951359542895607 -1.4651511274614792 8.156472079137071
H -2.9346324406474578 -2.3644697655156612 8.034261278063617
H -2.115493652012779 -1.5082904290699255 8.99733128662865
O 4.890233213334154 0.04236629812413106 9.017824720003935
H 4.182816726737652 -0.6099020228327756 9.132172036839615
H 4.6620996881817645 0.4924826984005728 8.190593032262392
O -4.7658520162473 4.835418848271985 3.7393837619410246
H -4.809235310295591 4.893324952527974 4.70568191975124
H -5.608618878340885 5.211744203976838 3.444281767521219
O 0.3244503263332703 6.270722148583737 -10.66876472945193
H -0.2770090053962271 6.2606160461932365 -11.428443540443775
H 1.1277360523415343 5.8421806566171925 -11.000496814656938
O -7.863907706204252 0.9496636792387685 -6.009766120067234
H -7.145495266752093 1.5541567249687125 -5.770101601615847
H -8.34690869543841 1.4235047060203252 -6.703413487277274
O 0.4132072551626207 4.398043512694814 -6.411052365128399
H 0.08627943271260508 5.065280120172121 -5.789054884868015
H 1.2900226202824974 4.168345543415728 -6.068421948062487
O -2.2821567349302248 -3.534846486734092 3.1090378973583612
H -2.198570523381901 -4.486570848681396 3.2709064891697346
H -1.3808804920614737 -3.254720714296104 2.8895096988133733
O -0.8618052600214721 7.648249247858596 3.949706381816944
H -1.2985537266678813 7.524430488495552 3.0936181570341192
H 0.02169039914278903 7.971254545884102 3.7171876901266607
O 3.7872548412425946 -0.5561867184783562 13.145752950547283
H 3.8329799321882905 -1.0067617881810742 14.002408470298603
H 3.1799899008558494 0.18258461747077437 13.301984028303977
O 3.8562403705503536 -11.158058998525473 5.970485524428705
H 3.991641056167486 -11.196305999119401 6.9292196784985265
H 2.903994172594972 -11.301474021902775 5.862683604922564
O 11.314669259861532 -6.857532232454848 1.239695921020332
H 11.37380758753196 -6.865225293961405 2.2068623141011723
H 11.845902824238788 -6.090268752781044 0.9788135775436636
O -3.2073229026777867 -9.895014848954133 3.879221028330244
H -3.0811893314904006 -9.720339832060302 4.82396772326633
H -3.693395749123122 -9.119623983954265 3.5606866679807094
O 8.311059002266761 5.985873698502038 9.643295735914377
H 8.516248144947474 6.009939241295312 10.590019360989837
H 8.715800538292285 6.794668000853003 9.295448054018529
O -5.9936144279884065 -7.478223623068059 -2.972733797612072
H -6.2201139572157915 -8.396732815397238 -2.762957288520667
H -6.365252002312136 -6.971233601919069 -2.2353000201743147
O 5.997865897812078 10.843250385242136 0.2298272341665335
H 6.4685225751502 11.244799381401094 -0.5159663382519835
H 6.65630196504787 10.826726253359432 0.9405668789933754
O -4.716669403260791 -1.6817201142580935 -5.822328937282728
H -5.265101370626065 -2.4715731051711503 -5.94200344090633
H -4.938618536605543 -1.3756460783921822 -4.930129850152357
O -0.36510276737027736 -8.420867241781432 8.171385269768635
H -0.39608629497490644 -8.395423918047692 7.20321172375813
H 0.30810341480628156 -7.7629513461672675 8.401389736850193
O -4.678412340400015 -4.247589770234435 -1.7746247701070954
H -4.637540081250826 -4.327155044294015 -2.73949065845421
H -4.033821811550601 -4.898424630348986 -1.4585884125826738
O 1.6548530629655387 -5.6381549327607825 -4.62775021422841
H 2.428690882999128 -5.0581021616880335 -4.688422843613397
H 2.0114783935213714 -6.522796781029692 -4.798598445700995
O -5.742884038766478 -3.7520871450462234 -8.00364726198784
H -5.562570860321246 -2.817352350153788 -8.184548831346362
H -6.422654119226134 -3.7300185317120063 -7.313438917850088
O -7.408895927432515 -3.483556198097409 6.698500497461341
H -7.4270036507777695 -2.711219339118336 7.283423777488381
H -8.262045464089924 -3.9156014521547893 6.854816558209244
O -5.515408734371793 3.5620949112010027 -5.163976482421051
H -5.617321766869605 3.840293426116944 -4.241378695188896
H -4.565895956684747 3.6557240698655766 -5.333153933509527
O 4.30748823613127 -6.1733700904404865 -5.255505593436405
H 5.118360006851188 -5.671486067334401 -5.427455457351429
H 4.565761356729083 -7.094788643726671 -5.407968012204646
O 12.268074271110475 4.582551268129633 0.32067674828926407
H 12.952276377049504 5.263585447383868 0.40450563242897175
H 11.977859023778537 4.654543323236699 -0.6010358959320912
C -3.5662670757630925 0.22353297082280044 13.142217067928785
O -4.681404351212121 -0.14931365334896718 13.366432386423833
O -2.4511298003140656 0.5963795949945672 12.918001749433737