146

C -5.3564454929577465 1.0091607042253532 -0.0734429577464788
C -4.079135492957747 0.16955070422535368 -0.19788295774647868
C -4.333545492957747 -1.2789292957746463 0.3017270422535212
C -3.1403854929577464 -2.1745492957746464 0.7330270422535212
C -2.905235492957746 0.902300704225353 0.41966704225352136
C -2.7423854929577463 1.056130704225354 1.8024770422535212
C -1.8861754929577463 1.3499307042253532 -0.4326129577464788
C -1.5304554929577463 1.5279207042253526 2.3254170422535214
H -3.5237954929577464 0.7301007042253529 2.484817042253521
C -0.6776454929577462 1.8010507042253527 0.08546704225352131
H -1.9759254929577463 1.2426607042253535 -1.5115229577464788
C -0.4680254929577463 1.8513207042253539 1.4698070422535212
H -1.3950654929577464 1.5446707042253527 3.404047042253521
H 0.1461845070422536 1.9972507042253538 -0.6030529577464789
C -1.8679654929577463 -2.0866092957746467 -0.08765295774647863
C -0.6628654929577462 -1.814079295774647 0.5787970422535212
C -1.8438954929577462 -2.213429295774647 -1.4808029577464787
C 0.5129345070422537 -1.5763292957746469 -0.13022295774647863
H -0.6401854929577462 -1.7032692957746463 1.6609470422535213
C -0.6547954929577462 -1.9962392957746466 -2.1933129577464787
H -2.7578654929577464 -2.4351492957746466 -2.026182957746479
C 0.5308845070422537 -1.645769295774647 -1.5261029577464789
H 1.4044045070422537 -1.2610992957746463 0.41551704225352126
H -0.6795654929577464 -2.0467992957746466 -3.2793129577464786
C 1.7843245070422535 -1.2521692957746469 -2.2771629577464787
H 1.4981245070422535 -0.9384492957746469 -3.290282957746479
H 2.241984507042254 -0.38631929577464685 -1.8135029577464787
C 0.9385645070422537 2.0647807042253534 1.9815670422535212
H 1.0508945070422537 1.5807407042253532 2.9609770422535213
H 1.6053245070422537 1.5496207042253536 1.3096170422535214
C 3.9676945070422533 -1.6881692957746468 -3.314052957746479
H 4.795084507042254 -2.398849295774647 -3.4044129577464783
H 3.548404507042253 -1.4816192957746468 -4.303802957746479
H 4.307714507042253 -0.7637192957746466 -2.851282957746479
C 2.344694507042253 -3.565079295774647 -3.101282957746479
H 1.6334345070422536 -4.047909295774646 -2.4251929577464786
H 1.8561845070422536 -3.293109295774647 -4.041792957746479
H 3.1808045070422537 -4.243519295774647 -3.298122957746479
C 3.5156645070422536 -2.648489295774647 -1.1110629577464786
H 3.9311845070422535 -1.748249295774647 -0.6771029577464787
H 2.767184507042254 -3.1044092957746465 -0.45972295774647876
H 4.319224507042254 -3.371819295774647 -1.2863129577464787
C 2.963994507042253 3.381090704225353 2.401027042253521
H 3.3337945070422537 4.369820704225353 2.6912870422535216
H 3.120994507042253 2.671350704225353 3.2183370422535216
H 3.4665445070422534 3.0664207042253535 1.4881370422535212
C 1.2973745070422538 4.282440704225354 0.8488370422535213
H 1.7592145070422538 3.7367207042253527 0.02653704225352116
H 0.23311450704225378 4.4484607042253534 0.6605570422535213
H 1.7921845070422535 5.251370704225354 0.9736770422535213
C 0.7724845070422537 4.194670704225353 3.2772470422535216
H -0.2956954929577462 4.278220704225354 3.057857042253521
H 0.9298945070422537 3.612620704225354 4.190337042253521
H 1.2046345070422537 5.193640704225353 3.3918370422535213
N 2.876084507042253 -2.324759295774647 -2.4576629577464786
N 1.4527845070422536 3.504690704225353 2.1388470422535213
C -3.593905492957746 -3.637819295774647 0.8297870422535213
H -2.8952554929577463 -1.8680692957746468 1.7595270422535212
H -5.022615492957747 -1.2402792957746467 1.1579970422535213
H -4.898275492957747 -1.7933092957746464 -0.48931295774647876
H -3.883675492957746 0.07871070422535364 -1.2758929577464788
H -3.8751654929577466 -4.038529295774646 -0.1505529577464788
H -4.4603554929577465 -3.7321892957746465 1.4932570422535212
H -2.7953554929577464 -4.271929295774647 1.2313670422535212
H -5.648775492957746 1.147700704225353 0.9733970422535213
H -6.189795492957747 0.5254307042253537 -0.5943629577464788
H -5.2178854929577465 2.002970704225354 -0.5139729577464787
C 3.6710445070422537 1.0263707042253536 -0.27764295774647874
O 2.7356545070422538 1.6631507042253526 -0.7327029577464788
O 3.650814507042253 0.3883007042253537 0.7790570422535212
O 4.756604507042254 0.8696707042253538 -0.8334829577464786
O -8.477974392897753 -1.2889169420750015 0.6271754925640395
H -8.546565249215128 -1.3340070783302025 -0.3383448495013869
H -8.54780295505736 -2.213030537590544 0.9101948890549115
O -7.108172427199706 -0.7818623042192487 3.8273819724621845
H -7.74386658114453 -0.09893806540473504 4.089058841099813
H -7.655490170469863 -1.4628222043431123 3.408217509959743
O 1.7502854471065428 16.174754059815502 -4.462441078144108
H 1.5152099453328907 16.447621231007687 -5.362024521884289
H 1.8450286120442554 15.212555687106931 -4.526938896359653
O -0.9854219127686683 -5.531647363565162 4.274426907238147
H -1.632570339926155 -4.843059319252876 4.059921020704061
H -0.23064520669206137 -5.040286584917787 4.631972223906107
O -7.533088143774561 -8.328430806488772 -11.719965103152866
H -7.29957518313906 -8.6175401980664 -12.614870022022384
H -8.387314267533444 -8.753914784331899 -11.551967905596898
O -9.133386126771976 -2.83935429077809 -9.16866019544775
H -9.200685855444107 -2.8103691554282664 -10.134888928900349
H -8.862116570157472 -1.9413368741844086 -8.925885626251182
O 10.655239956771341 -6.80362426038022 6.048580281742687
H 10.526810620853874 -6.61878003993694 5.106080479756227
H 9.796993851445286 -6.594919729863586 6.447100025211555
O -5.495771343845648 -5.450273076346653 9.812122465056195
H -4.952361678164042 -5.948771623852944 9.183494999638143
H -5.353798089675761 -5.904777699471213 10.65606031049199
O 5.489081459538516 -6.0245078739633975 0.761758773259835
H 5.334063364163213 -5.075861048667295 0.6392600064830163
H 6.402081461415449 -6.072943409325973 1.0827680251309646
O -4.548192240603806 -3.7598293342665787 -6.272246715156273
H -3.819567176344056 -4.193673693951376 -6.741130436565073
H -5.316179082626663 -4.318339339307263 -6.4651838267994535
O 6.179044383382364 11.99774644952588 -2.509770942859022
H 7.096268600221989 12.256891655930369 -2.6844445096644027
H 6.2597877930825865 11.157488323780589 -2.0339466809629005
O -3.4813913114227963 4.276755514847774 -4.013470324674026
H -3.147459970383908 3.370678991676012 -4.093984612405723
H -3.5241224718424204 4.592633992668962 -4.928542332484647
O 3.780293316103932 4.656024430626188 -1.825504172955156
H 3.432701201111212 4.996011031507599 -2.663690422971221
H 4.179731139530667 3.8063463851836428 -2.0652093848489446
O 7.4894833933748775 3.185852463056833 8.599807229354463
H 8.331211362005215 3.2241576186615424 8.121273950700253
H 6.8330727996063585 3.0221799746653697 7.906050504535017
O 8.999591421706157 -0.026222815797738885 4.991365605815505
H 8.886332031962102 0.5199388956761086 5.783733608990016
H 8.9047937582916 -0.9338622692331597 5.317196804258184
O -4.646475744464359 -13.115610251966679 -1.9536469799932576
H -5.529163621585312 -13.511766906978092 -2.0073998699051097
H -4.632470078105231 -12.475605810016472 -2.681080894444487
O -12.473243756463406 -2.5323740150228646 -0.7028391700646182
H -13.395165243096063 -2.4046104116830196 -0.9724770588092363
H -12.083541602557696 -1.6481429946353237 -0.7751556835705854
O 1.6087474281286718 -8.555802072769119 -9.963910421166124
H 1.5955380961925356 -8.589642750022685 -10.93223251582927
H 1.1089640782151808 -9.341352645290309 -9.695416761164855
O -5.77866361877767 -11.006073950598392 -7.705849530039387
H -6.513941748788565 -11.630806785110451 -7.616170580947578
H -6.213485525055729 -10.147806479051576 -7.821039813506998
O -5.718901885352237 1.6293093160469982 6.320851327183814
H -6.579126720279766 1.8364122720134415 5.92577037863799
H -5.202277836072906 2.4393340864594526 6.194671268044199
O -9.093622896489475 -3.102575766645038 -1.7041193252285007
H -8.262629363440102 -3.5213736963578754 -1.9743514458181215
H -9.39657931453782 -3.6429408557258944 -0.9590120017066108
O 1.9499601891269762 10.106073098765345 6.0303084003132215
H 2.2093466979530687 10.060628763409028 5.097773785232882
H 2.744321960411868 10.433257785334881 6.478528771888994
O -9.99929962194818 -7.9719503537772045 3.0132292027484424
H -10.2893074450534 -8.342018354357709 2.165932032692906
H -9.62629322356801 -7.109504754221246 2.7765527170680566
O -7.352041684617289 9.950779530777021 -8.972846288428618
H -7.764467180837506 9.884622896022236 -9.847200831303208
H -7.602219510168657 9.124438916000338 -8.532921080838872
C -3.954094251090578 -3.7059922728687837 5.487640419438005
O -3.87096008028006 -3.1911107576127584 6.565046560218401
O -4.037228421901096 -4.220873788124809 4.410234278657608