146

C -5.3564454929577465 1.0091607042253532 -0.0734429577464788
C -4.079135492957747 0.16955070422535368 -0.19788295774647868
C -4.333545492957747 -1.2789292957746463 0.3017270422535212
C -3.1403854929577464 -2.1745492957746464 0.7330270422535212
C -2.905235492957746 0.902300704225353 0.41966704225352136
C -2.7423854929577463 1.056130704225354 1.8024770422535212
C -1.8861754929577463 1.3499307042253532 -0.4326129577464788
C -1.5304554929577463 1.5279207042253526 2.3254170422535214
H -3.5237954929577464 0.7301007042253529 2.484817042253521
C -0.6776454929577462 1.8010507042253527 0.08546704225352131
H -1.9759254929577463 1.2426607042253535 -1.5115229577464788
C -0.4680254929577463 1.8513207042253539 1.4698070422535212
H -1.3950654929577464 1.5446707042253527 3.404047042253521
H 0.1461845070422536 1.9972507042253538 -0.6030529577464789
C -1.8679654929577463 -2.0866092957746467 -0.08765295774647863
C -0.6628654929577462 -1.814079295774647 0.5787970422535212
C -1.8438954929577462 -2.213429295774647 -1.4808029577464787
C 0.5129345070422537 -1.5763292957746469 -0.13022295774647863
H -0.6401854929577462 -1.7032692957746463 1.6609470422535213
C -0.6547954929577462 -1.9962392957746466 -2.1933129577464787
H -2.7578654929577464 -2.4351492957746466 -2.026182957746479
C 0.5308845070422537 -1.645769295774647 -1.5261029577464789
H 1.4044045070422537 -1.2610992957746463 0.41551704225352126
H -0.6795654929577464 -2.0467992957746466 -3.2793129577464786
C 1.7843245070422535 -1.2521692957746469 -2.2771629577464787
H 1.4981245070422535 -0.9384492957746469 -3.290282957746479
H 2.241984507042254 -0.38631929577464685 -1.8135029577464787
C 0.9385645070422537 2.0647807042253534 1.9815670422535212
H 1.0508945070422537 1.5807407042253532 2.9609770422535213
H 1.6053245070422537 1.5496207042253536 1.3096170422535214
C 3.9676945070422533 -1.6881692957746468 -3.314052957746479
H 4.795084507042254 -2.398849295774647 -3.4044129577464783
H 3.548404507042253 -1.4816192957746468 -4.303802957746479
H 4.307714507042253 -0.7637192957746466 -2.851282957746479
C 2.344694507042253 -3.565079295774647 -3.101282957746479
H 1.6334345070422536 -4.047909295774646 -2.4251929577464786
H 1.8561845070422536 -3.293109295774647 -4.041792957746479
H 3.1808045070422537 -4.243519295774647 -3.298122957746479
C 3.5156645070422536 -2.648489295774647 -1.1110629577464786
H 3.9311845070422535 -1.748249295774647 -0.6771029577464787
H 2.767184507042254 -3.1044092957746465 -0.45972295774647876
H 4.319224507042254 -3.371819295774647 -1.2863129577464787
C 2.963994507042253 3.381090704225353 2.401027042253521
H 3.3337945070422537 4.369820704225353 2.6912870422535216
H 3.120994507042253 2.671350704225353 3.2183370422535216
H 3.4665445070422534 3.0664207042253535 1.4881370422535212
C 1.2973745070422538 4.282440704225354 0.8488370422535213
H 1.7592145070422538 3.7367207042253527 0.02653704225352116
H 0.23311450704225378 4.4484607042253534 0.6605570422535213
H 1.7921845070422535 5.251370704225354 0.9736770422535213
C 0.7724845070422537 4.194670704225353 3.2772470422535216
H -0.2956954929577462 4.278220704225354 3.057857042253521
H 0.9298945070422537 3.612620704225354 4.190337042253521
H 1.2046345070422537 5.193640704225353 3.3918370422535213
N 2.876084507042253 -2.324759295774647 -2.4576629577464786
N 1.4527845070422536 3.504690704225353 2.1388470422535213
C -3.593905492957746 -3.637819295774647 0.8297870422535213
H -2.8952554929577463 -1.8680692957746468 1.7595270422535212
H -5.022615492957747 -1.2402792957746467 1.1579970422535213
H -4.898275492957747 -1.7933092957746464 -0.48931295774647876
H -3.883675492957746 0.07871070422535364 -1.2758929577464788
H -3.8751654929577466 -4.038529295774646 -0.1505529577464788
H -4.4603554929577465 -3.7321892957746465 1.4932570422535212
H -2.7953554929577464 -4.271929295774647 1.2313670422535212
H -5.648775492957746 1.147700704225353 0.9733970422535213
H -6.189795492957747 0.5254307042253537 -0.5943629577464788
H -5.2178854929577465 2.002970704225354 -0.5139729577464787
C 3.6710445070422537 1.0263707042253536 -0.27764295774647874
O 2.7356545070422538 1.6631507042253526 -0.7327029577464788
O 3.650814507042253 0.3883007042253537 0.7790570422535212
O 4.756604507042254 0.8696707042253538 -0.8334829577464786
O -5.8872111187217175 3.802424098432944 9.904256160007378
H -5.6704771946613395 4.35530291334419 9.138541605435162
H -6.826910338104248 3.597380553153979 9.786423796323641
O 8.722176487694936 2.4186645571662226 -3.4801395582582244
H 9.186969360619477 2.259242823004933 -4.315315978456712
H 8.576037915117736 1.5308477607399056 -3.120435794185051
O -1.3720909328492992 -3.4728833203241205 7.524739553451049
H -1.485654447208121 -3.152095398553665 6.617454706033952
H -1.921658732189392 -2.8760185254335497 8.054541020841167
O -11.872736600425638 7.059135287692905 1.6151169876811198
H -11.256077112184252 6.813142990568586 2.3209400690672233
H -12.378286561645869 6.248526725858037 1.4529598401660353
O 7.885424302210553 9.881355333901514 -4.694935891933213
H 8.290270834567242 9.507523213353132 -5.492003133629334
H 7.5692385525520205 9.105970086600198 -4.207323100591199
O -2.578846199239706 5.113054764212052 -5.794194790724455
H -2.452875930069757 5.130030064857547 -4.833564431349297
H -1.8678062508815523 5.677195162911646 -6.133502537016662
O 3.7196665064455523 -3.6257631331959495 -8.269432508791917
H 2.9103482764126865 -3.587342466212901 -8.800935295035835
H 4.117423605233879 -4.47603117088432 -8.50983945284525
O -1.284158156081381 -7.042879299097953 3.196639867168436
H -1.4215679391121816 -6.527303563173389 2.3877717883364964
H -1.5319857505902073 -6.433124912648874 3.9077959793590544
O -9.96336277873011 -2.8018971408229008 2.037507121438426
H -10.676904034228023 -2.650932089089904 2.6755006846957037
H -10.418385377501114 -3.1474414941419946 1.2548734403353374
O -1.6238523154473183 1.4607258781021522 -13.116194554445727
H -1.4710430169803335 2.354554063380485 -13.457790588386509
H -0.7488568302784406 1.1720523603254511 -12.816173812881907
O -9.563105080769219 -5.838523121042811 2.6191837200614025
H -10.033189468289466 -5.94046102934747 3.460371385425195
H -8.844867895063 -5.2217128290557175 2.82568396961963
O -0.7772755886236963 13.659458320843935 0.8221181408889796
H -0.4722565954328351 14.491168621530164 0.4294493919093163
H -1.7421074485749117 13.703723128365155 0.7440025013653352
O 4.268516811837053 5.305397408477484 -1.0017010634527956
H 3.5375108798511867 5.4503581215478025 -1.6210427106618472
H 5.025400277398417 5.734313871105285 -1.4284563000307096
O 0.7029796423791037 0.24102877933591116 11.967332101508891
H 0.36700634713205815 1.1489890554618285 11.926132116579389
H 0.5198702575390746 -0.03520309582754999 12.877897227475827
O -2.059858716882876 2.7053501049431183 5.5025122540664455
H -2.2670530011979695 3.3975232387849275 6.148216705216324
H -1.8777432190914922 1.9245442519703309 6.046697984977899
O 1.2414954255253483 1.5558075445515946 9.571662074613208
H 2.026403245450407 1.4459747639152312 9.014146306748138
H 1.5842442674655 1.9649658080989543 10.380410917592036
O 0.44784396784342295 -6.397085653922289 -8.021933031967334
H -0.3915840566211961 -6.697086383707155 -7.6420284245038586
H 0.7637197537102098 -5.729942391229272 -7.394155763147926
O -1.0681055263512071 -4.876632728660348 -3.364016724571309
H -1.7760537352554615 -5.464371986632769 -3.667890473103964
H -1.497730107754687 -4.011184503496548 -3.290640754971504
O -0.9553289701872285 -12.764300559053302 -6.580608268373652
H -0.7732081398970285 -12.606924137221617 -5.641975208053558
H -1.0819820555853186 -11.87605727959508 -6.946592990399648
O 10.04900646944068 -4.180567957734155 0.07089585798923936
H 10.721936503916062 -4.817234830446941 0.3551278385809482
H 9.221972056407981 -4.684556252263298 0.10206993275119203
O 7.888394381118068 -3.3626901115044174 -7.304159421580589
H 6.926948960720225 -3.3023659323819254 -7.4088067049147215
H 8.007726406618426 -4.044991247111596 -6.626526060286196
O -8.366940355974679 0.6687311658394643 10.102081746290926
H -8.112635261281158 0.8610144860253857 11.017135515471294
H -7.6685348212860145 1.082739824899041 9.573131386011312
O -8.032120712784359 -8.06765513492109 3.7305754921532683
H -7.972221741666054 -8.047395103977422 2.7636375410389626
H -7.116664733271593 -8.200623565451986 4.019057190630786
O 3.8501257669009687 -1.389597161305944 7.778169082766537
H 3.8733709503430744 -1.356324734703139 8.74632194465081
H 3.5664675277660516 -0.49969978050714264 7.520133040093597
C 10.462329743154065 1.1295213088128717 -6.20823354219467
O 11.583661542227837 0.7517414890574932 -6.02735883011039
O 9.340997944080293 1.5073011285682512 -6.38910825427895