146

C -5.3564454929577465 1.0091607042253532 -0.0734429577464788
C -4.079135492957747 0.16955070422535368 -0.19788295774647868
C -4.333545492957747 -1.2789292957746463 0.3017270422535212
C -3.1403854929577464 -2.1745492957746464 0.7330270422535212
C -2.905235492957746 0.902300704225353 0.41966704225352136
C -2.7423854929577463 1.056130704225354 1.8024770422535212
C -1.8861754929577463 1.3499307042253532 -0.4326129577464788
C -1.5304554929577463 1.5279207042253526 2.3254170422535214
H -3.5237954929577464 0.7301007042253529 2.484817042253521
C -0.6776454929577462 1.8010507042253527 0.08546704225352131
H -1.9759254929577463 1.2426607042253535 -1.5115229577464788
C -0.4680254929577463 1.8513207042253539 1.4698070422535212
H -1.3950654929577464 1.5446707042253527 3.404047042253521
H 0.1461845070422536 1.9972507042253538 -0.6030529577464789
C -1.8679654929577463 -2.0866092957746467 -0.08765295774647863
C -0.6628654929577462 -1.814079295774647 0.5787970422535212
C -1.8438954929577462 -2.213429295774647 -1.4808029577464787
C 0.5129345070422537 -1.5763292957746469 -0.13022295774647863
H -0.6401854929577462 -1.7032692957746463 1.6609470422535213
C -0.6547954929577462 -1.9962392957746466 -2.1933129577464787
H -2.7578654929577464 -2.4351492957746466 -2.026182957746479
C 0.5308845070422537 -1.645769295774647 -1.5261029577464789
H 1.4044045070422537 -1.2610992957746463 0.41551704225352126
H -0.6795654929577464 -2.0467992957746466 -3.2793129577464786
C 1.7843245070422535 -1.2521692957746469 -2.2771629577464787
H 1.4981245070422535 -0.9384492957746469 -3.290282957746479
H 2.241984507042254 -0.38631929577464685 -1.8135029577464787
C 0.9385645070422537 2.0647807042253534 1.9815670422535212
H 1.0508945070422537 1.5807407042253532 2.9609770422535213
H 1.6053245070422537 1.5496207042253536 1.3096170422535214
C 3.9676945070422533 -1.6881692957746468 -3.314052957746479
H 4.795084507042254 -2.398849295774647 -3.4044129577464783
H 3.548404507042253 -1.4816192957746468 -4.303802957746479
H 4.307714507042253 -0.7637192957746466 -2.851282957746479
C 2.344694507042253 -3.565079295774647 -3.101282957746479
H 1.6334345070422536 -4.047909295774646 -2.4251929577464786
H 1.8561845070422536 -3.293109295774647 -4.041792957746479
H 3.1808045070422537 -4.243519295774647 -3.298122957746479
C 3.5156645070422536 -2.648489295774647 -1.1110629577464786
H 3.9311845070422535 -1.748249295774647 -0.6771029577464787
H 2.767184507042254 -3.1044092957746465 -0.45972295774647876
H 4.319224507042254 -3.371819295774647 -1.2863129577464787
C 2.963994507042253 3.381090704225353 2.401027042253521
H 3.3337945070422537 4.369820704225353 2.6912870422535216
H 3.120994507042253 2.671350704225353 3.2183370422535216
H 3.4665445070422534 3.0664207042253535 1.4881370422535212
C 1.2973745070422538 4.282440704225354 0.8488370422535213
H 1.7592145070422538 3.7367207042253527 0.02653704225352116
H 0.23311450704225378 4.4484607042253534 0.6605570422535213
H 1.7921845070422535 5.251370704225354 0.9736770422535213
C 0.7724845070422537 4.194670704225353 3.2772470422535216
H -0.2956954929577462 4.278220704225354 3.057857042253521
H 0.9298945070422537 3.612620704225354 4.190337042253521
H 1.2046345070422537 5.193640704225353 3.3918370422535213
N 2.876084507042253 -2.324759295774647 -2.4576629577464786
N 1.4527845070422536 3.504690704225353 2.1388470422535213
C -3.593905492957746 -3.637819295774647 0.8297870422535213
H -2.8952554929577463 -1.8680692957746468 1.7595270422535212
H -5.022615492957747 -1.2402792957746467 1.1579970422535213
H -4.898275492957747 -1.7933092957746464 -0.48931295774647876
H -3.883675492957746 0.07871070422535364 -1.2758929577464788
H -3.8751654929577466 -4.038529295774646 -0.1505529577464788
H -4.4603554929577465 -3.7321892957746465 1.4932570422535212
H -2.7953554929577464 -4.271929295774647 1.2313670422535212
H -5.648775492957746 1.147700704225353 0.9733970422535213
H -6.189795492957747 0.5254307042253537 -0.5943629577464788
H -5.2178854929577465 2.002970704225354 -0.5139729577464787
C 3.6710445070422537 1.0263707042253536 -0.27764295774647874
O 2.7356545070422538 1.6631507042253526 -0.7327029577464788
O 3.650814507042253 0.3883007042253537 0.7790570422535212
O 4.756604507042254 0.8696707042253538 -0.8334829577464786
O -0.7389057624964313 4.139489434472127 10.839898946578707
H -0.6795962921025156 3.588768655930772 11.63498156348364
H -0.8919613058827278 3.503173617681342 10.125309465659344
O 6.011052697239272 -11.38286028758591 0.668062627877871
H 5.872127773996729 -12.100539186409286 1.3041477014220653
H 6.775797953613784 -10.902975991571614 1.0199684385595735
O 7.036823364694383 -2.6058581657865223 -9.156680210009926
H 7.280775135247915 -2.4843562725798147 -10.086568472378575
H 7.678955119045092 -3.25331370897639 -8.828914937372339
O -11.400516167863616 1.2966958400744844 2.571657570873187
H -12.257476766597804 1.37256874767369 2.125754900989293
H -11.356767981827232 0.3660042303682405 2.8378551819461015
O 1.198733887390577 -7.455156739093883 4.7180109158066
H 1.1997815575848816 -7.5149152363522225 5.685169217891936
H 0.6041205989090215 -8.168013758150716 4.440104723283733
O 5.939456887805167 -1.7231638490464565 -1.3950995478131545
H 5.786008479558096 -2.626107250438119 -1.0786913355466323
H 6.660049007681444 -1.8189639514800586 -2.0358266983584747
O 8.005586202306326 -4.628928122523146 -9.687129318354081
H 8.067426491906636 -4.6488130727506025 -10.653952841152634
H 8.922137586516886 -4.509084494777054 -9.396383709117485
O -9.719737324090051 -4.481520939797505 -3.3790221588677345
H -10.321788921571443 -4.006224173323581 -2.7869121904923158
H -9.265654419543454 -5.108956821803104 -2.7967036257002067
O 3.1231526526284754 5.926313068317846 -2.615943128285663
H 2.6976386900010545 6.769953863949954 -2.4010584325664643
H 3.549835526903135 6.09031078931257 -3.4703484282512305
O 0.16219506873746733 8.098138713493855 2.6364867059616297
H 1.0499903840840064 7.785398785251096 2.8666617963416616
H 0.32446241036739787 8.88039724816577 2.088122922444425
O -0.2945156347831059 4.340940273585212 -5.257348831355493
H 0.4290515320426907 3.6981084057307134 -5.210603760359858
H -0.8524497445038586 4.121100451153774 -4.4962036901482305
O -7.466170335111426 -10.569936839135904 -6.357165424674438
H -8.172336649177968 -9.99148434467315 -6.682264187248974
H -6.980546161921792 -10.015588519017758 -5.72801596175162
O 7.936835335075276 7.824086741575709 2.8621261160927176
H 8.25161890993768 8.609652853235557 2.3901467287160276
H 7.226782123882079 7.481426328899236 2.2987699027084885
O -0.5291185396904079 11.732123781611298 -8.357828788587263
H -0.5951465653964179 12.029779817668585 -9.277616014482486
H -0.15067240903261414 10.842708136162221 -8.426241361412325
O -2.500884602790082 -8.716517665443941 4.7077276593357045
H -3.250284582333043 -9.294938712499768 4.914599890154277
H -1.8251212772844372 -9.321742575039352 4.367127188098831
O -2.8432015918133717 -6.356124667337555 -0.5687202843991956
H -1.9219903916036998 -6.379876008853842 -0.868341971338632
H -2.9096146997171086 -5.520769697974902 -0.0821678015572247
O 4.894098305849965 4.838261117693116 -3.5586014183266763
H 5.014808151747541 4.738203276666904 -4.514836179487637
H 4.093743245199969 4.326022326866202 -3.3688512078811588
O -0.8148442267840408 2.010496686903913 -11.054126310924342
H -0.2625210559807254 2.631216801579858 -11.552737392961687
H -0.3662954307940125 1.9331453704912596 -10.198683328741936
O 1.4239944062745447 -7.362154136465281 -4.3795389742661985
H 2.214722285852866 -7.656084883039531 -3.9027565358565215
H 0.9009748471806609 -8.170855493430068 -4.4863781073053275
O 5.21448997900647 -4.7324468495937015 -3.7349665306865125
H 5.236977295442407 -4.599874658980955 -4.6945947356574
H 6.147990722681435 -4.7219532188284274 -3.4752971455606407
O -8.875560104121542 -1.8473504163746788 4.327800409038205
H -9.63521827943043 -1.2694942466389278 4.4950399399054515
H -8.134477740644652 -1.2331785880199346 4.21576541406388
O 2.2485750600036782 -5.955574053277226 1.5016858831470796
H 2.5547978780273337 -5.757062925142059 0.6040287801126547
H 1.7623885943166442 -6.788110233655256 1.4043813444846354
O 7.906131926208944 -5.865279572924488 -1.796794769891585
H 7.269006769749745 -6.594973881314282 -1.8209837800074133
H 8.624122719865346 -6.199868272969471 -1.2386715161860455
O -3.1398066249985415 -2.2718541592872166 11.085234738191268
H -3.1089411388401746 -2.3039718462572996 12.053213628894934
H -3.966787968129331 -1.8049179259217436 10.89279161312815
C -3.1557040885247885 -4.041980511898618 -4.7693928972892445
O -3.07769876383772 -2.974674054147483 -5.305667408955791
O -3.2337094132118565 -5.109286969649752 -4.233118385622699