146

C -5.3564454929577465 1.0091607042253532 -0.0734429577464788
C -4.079135492957747 0.16955070422535368 -0.19788295774647868
C -4.333545492957747 -1.2789292957746463 0.3017270422535212
C -3.1403854929577464 -2.1745492957746464 0.7330270422535212
C -2.905235492957746 0.902300704225353 0.41966704225352136
C -2.7423854929577463 1.056130704225354 1.8024770422535212
C -1.8861754929577463 1.3499307042253532 -0.4326129577464788
C -1.5304554929577463 1.5279207042253526 2.3254170422535214
H -3.5237954929577464 0.7301007042253529 2.484817042253521
C -0.6776454929577462 1.8010507042253527 0.08546704225352131
H -1.9759254929577463 1.2426607042253535 -1.5115229577464788
C -0.4680254929577463 1.8513207042253539 1.4698070422535212
H -1.3950654929577464 1.5446707042253527 3.404047042253521
H 0.1461845070422536 1.9972507042253538 -0.6030529577464789
C -1.8679654929577463 -2.0866092957746467 -0.08765295774647863
C -0.6628654929577462 -1.814079295774647 0.5787970422535212
C -1.8438954929577462 -2.213429295774647 -1.4808029577464787
C 0.5129345070422537 -1.5763292957746469 -0.13022295774647863
H -0.6401854929577462 -1.7032692957746463 1.6609470422535213
C -0.6547954929577462 -1.9962392957746466 -2.1933129577464787
H -2.7578654929577464 -2.4351492957746466 -2.026182957746479
C 0.5308845070422537 -1.645769295774647 -1.5261029577464789
H 1.4044045070422537 -1.2610992957746463 0.41551704225352126
H -0.6795654929577464 -2.0467992957746466 -3.2793129577464786
C 1.7843245070422535 -1.2521692957746469 -2.2771629577464787
H 1.4981245070422535 -0.9384492957746469 -3.290282957746479
H 2.241984507042254 -0.38631929577464685 -1.8135029577464787
C 0.9385645070422537 2.0647807042253534 1.9815670422535212
H 1.0508945070422537 1.5807407042253532 2.9609770422535213
H 1.6053245070422537 1.5496207042253536 1.3096170422535214
C 3.9676945070422533 -1.6881692957746468 -3.314052957746479
H 4.795084507042254 -2.398849295774647 -3.4044129577464783
H 3.548404507042253 -1.4816192957746468 -4.303802957746479
H 4.307714507042253 -0.7637192957746466 -2.851282957746479
C 2.344694507042253 -3.565079295774647 -3.101282957746479
H 1.6334345070422536 -4.047909295774646 -2.4251929577464786
H 1.8561845070422536 -3.293109295774647 -4.041792957746479
H 3.1808045070422537 -4.243519295774647 -3.298122957746479
C 3.5156645070422536 -2.648489295774647 -1.1110629577464786
H 3.9311845070422535 -1.748249295774647 -0.6771029577464787
H 2.767184507042254 -3.1044092957746465 -0.45972295774647876
H 4.319224507042254 -3.371819295774647 -1.2863129577464787
C 2.963994507042253 3.381090704225353 2.401027042253521
H 3.3337945070422537 4.369820704225353 2.6912870422535216
H 3.120994507042253 2.671350704225353 3.2183370422535216
H 3.4665445070422534 3.0664207042253535 1.4881370422535212
C 1.2973745070422538 4.282440704225354 0.8488370422535213
H 1.7592145070422538 3.7367207042253527 0.02653704225352116
H 0.23311450704225378 4.4484607042253534 0.6605570422535213
H 1.7921845070422535 5.251370704225354 0.9736770422535213
C 0.7724845070422537 4.194670704225353 3.2772470422535216
H -0.2956954929577462 4.278220704225354 3.057857042253521
H 0.9298945070422537 3.612620704225354 4.190337042253521
H 1.2046345070422537 5.193640704225353 3.3918370422535213
N 2.876084507042253 -2.324759295774647 -2.4576629577464786
N 1.4527845070422536 3.504690704225353 2.1388470422535213
C -3.593905492957746 -3.637819295774647 0.8297870422535213
H -2.8952554929577463 -1.8680692957746468 1.7595270422535212
H -5.022615492957747 -1.2402792957746467 1.1579970422535213
H -4.898275492957747 -1.7933092957746464 -0.48931295774647876
H -3.883675492957746 0.07871070422535364 -1.2758929577464788
H -3.8751654929577466 -4.038529295774646 -0.1505529577464788
H -4.4603554929577465 -3.7321892957746465 1.4932570422535212
H -2.7953554929577464 -4.271929295774647 1.2313670422535212
H -5.648775492957746 1.147700704225353 0.9733970422535213
H -6.189795492957747 0.5254307042253537 -0.5943629577464788
H -5.2178854929577465 2.002970704225354 -0.5139729577464787
C 3.6710445070422537 1.0263707042253536 -0.27764295774647874
O 2.7356545070422538 1.6631507042253526 -0.7327029577464788
O 3.650814507042253 0.3883007042253537 0.7790570422535212
O 4.756604507042254 0.8696707042253538 -0.8334829577464786
O 2.1558382404995546 11.032966351472655 -2.975849356946775
H 2.852994676541684 11.69153293483856 -2.8371759425560015
H 2.628824164397775 10.187249261421556 -2.9728721620176186
O 9.984824723368371 1.9917156388609685 1.0731593637052532
H 10.183293972168391 2.4207658998816783 1.9190276676975577
H 9.661968220795664 2.7144166465547364 0.5142059877203384
O -11.382538502328861 -0.3972057027300798 3.3920158401034546
H -10.655903618855177 -0.78975143355355 3.898846139347149
H -12.176475795090298 -0.6510623166950043 3.8861639343109537
O -3.1058626293080898 3.4634775510243303 6.983983298098375
H -3.590981045814725 2.6524706380803416 7.198215102513959
H -2.654002473054354 3.691145590556047 7.810392160143145
O -9.087337235854285 -0.04105986118805305 2.7639229719972063
H -9.706582203328873 -0.6717620225091387 2.366785954253572
H -8.354241900319455 -0.5949949118465749 3.0716389660063137
O -5.218654015749133 -5.3119163693617075 4.1592724820258
H -5.1234929908892095 -5.086177484591232 3.2217471798871364
H -6.02034670615916 -5.855395611469539 4.188955605867967
O -10.595525138888213 1.4362079555278684 2.65794253933786
H -11.204310905783082 1.2052648008236302 3.375586257502719
H -11.076178463630754 2.1069933391535 2.150023948589152
O -10.738725078148335 0.6649011715130817 -8.909969894582884
H -10.900068963547982 0.5199677951903802 -9.854390258600862
H -11.49747264238136 1.1940430170893728 -8.621399304725625
O -2.5790951731050327 8.621192181104815 6.867567487608436
H -3.140104041064346 8.904433091436715 7.605138496857964
H -1.8482668612843858 9.257459093656875 6.8716096321944065
O -2.3433664544428487 3.4708924512280106 -7.844498629599695
H -2.78366922218512 4.225369742471811 -8.263861058312514
H -2.50401096347536 2.7366149070021013 -8.45604729819711
O -9.703661763997799 6.997973593448323 3.2585603516881934
H -8.887501170357254 7.484633987649584 3.068794962314397
H -9.945309741198892 6.604928381916281 2.4064549232895986
O -3.8805389673469297 5.76899495608477 6.7318793166940045
H -3.7747112156428333 5.725798044485817 7.694117265798887
H -3.2663572584937883 6.467432146859662 6.459981793070286
O 13.54129729277719 -0.4215857374384025 -7.737312049835141
H 14.373760746583692 -0.9150244812766322 -7.687410536271923
H 13.085013308760628 -0.6483760127630056 -6.913095427066487
O -8.428556838058288 -0.7978196875558634 -10.338235343012387
H -8.26285501110949 -0.7589022462688599 -11.292172287579222
H -7.916310204964644 -1.565475123747166 -10.042819597883316
O 8.298478425964012 -8.06137489544257 -0.6482087007090049
H 8.48323794037283 -7.298724230031633 -1.2167113315592704
H 7.403037074435524 -8.331041423915194 -0.9020328400148615
O -5.638394225090451 7.660070852693412 8.486491380616428
H -5.696006543669234 8.347927785020259 9.16656565472028
H -4.722438997204571 7.349305430663766 8.54491070344082
O 5.847594107199106 13.026821337395141 -4.760974187311154
H 6.549545755111396 13.268301343524028 -5.383805342226525
H 6.190429367391034 12.2368413492107 -4.316724767573503
O -2.1934425715237675 4.942269615086482 -0.6554358475886288
H -2.2680356948675984 4.236946811642332 -1.3156804733081409
H -1.6459592465965225 5.613104618949537 -1.0904121122498913
O 4.247245551150955 1.6640848911407162 13.776800384341957
H 3.9730976889371186 1.7994031347254746 14.696310732025285
H 4.640899993524018 0.778648785883064 13.777814192071148
O 1.3377385764388663 1.5367300324153321 13.082682478362203
H 0.6781218833737526 1.67400095307566 13.779123336921574
H 1.2217872168764523 2.299789227375241 12.496800330227646
O -3.796091087943598 -2.5042428940105124 -3.2950639914076234
H -3.6128181093943046 -2.641557940801008 -4.236617468464872
H -3.8253773215488516 -1.540316291531739 -3.200460789268653
O 1.3114137968634978 2.949772505416144 -8.298012255667766
H 1.4565458819968284 2.9898784822892654 -7.340778979300973
H 1.7005339540306674 3.773396359326462 -8.628453165447581
O 5.1079272538027665 -2.142213465892746 -6.732502729137778
H 4.403306170217701 -2.75144806435893 -6.465463987568025
H 4.632951662609111 -1.3572923149236091 -7.04436635130542
O -4.823044216549245 7.728927866692966 4.03243300608097
H -4.827313243530593 7.551729269066826 4.9850870824948394
H -3.952712188647912 7.418631982730904 3.740541639464287
C 4.907093802123384 -7.026692087509855 -3.579689730266472
O 6.066395261108018 -7.217538900941172 -3.3507445877121684
O 3.747792343138749 -6.8358452740785385 -3.8086348728207753