146

C -5.3564454929577465 1.0091607042253532 -0.0734429577464788
C -4.079135492957747 0.16955070422535368 -0.19788295774647868
C -4.333545492957747 -1.2789292957746463 0.3017270422535212
C -3.1403854929577464 -2.1745492957746464 0.7330270422535212
C -2.905235492957746 0.902300704225353 0.41966704225352136
C -2.7423854929577463 1.056130704225354 1.8024770422535212
C -1.8861754929577463 1.3499307042253532 -0.4326129577464788
C -1.5304554929577463 1.5279207042253526 2.3254170422535214
H -3.5237954929577464 0.7301007042253529 2.484817042253521
C -0.6776454929577462 1.8010507042253527 0.08546704225352131
H -1.9759254929577463 1.2426607042253535 -1.5115229577464788
C -0.4680254929577463 1.8513207042253539 1.4698070422535212
H -1.3950654929577464 1.5446707042253527 3.404047042253521
H 0.1461845070422536 1.9972507042253538 -0.6030529577464789
C -1.8679654929577463 -2.0866092957746467 -0.08765295774647863
C -0.6628654929577462 -1.814079295774647 0.5787970422535212
C -1.8438954929577462 -2.213429295774647 -1.4808029577464787
C 0.5129345070422537 -1.5763292957746469 -0.13022295774647863
H -0.6401854929577462 -1.7032692957746463 1.6609470422535213
C -0.6547954929577462 -1.9962392957746466 -2.1933129577464787
H -2.7578654929577464 -2.4351492957746466 -2.026182957746479
C 0.5308845070422537 -1.645769295774647 -1.5261029577464789
H 1.4044045070422537 -1.2610992957746463 0.41551704225352126
H -0.6795654929577464 -2.0467992957746466 -3.2793129577464786
C 1.7843245070422535 -1.2521692957746469 -2.2771629577464787
H 1.4981245070422535 -0.9384492957746469 -3.290282957746479
H 2.241984507042254 -0.38631929577464685 -1.8135029577464787
C 0.9385645070422537 2.0647807042253534 1.9815670422535212
H 1.0508945070422537 1.5807407042253532 2.9609770422535213
H 1.6053245070422537 1.5496207042253536 1.3096170422535214
C 3.9676945070422533 -1.6881692957746468 -3.314052957746479
H 4.795084507042254 -2.398849295774647 -3.4044129577464783
H 3.548404507042253 -1.4816192957746468 -4.303802957746479
H 4.307714507042253 -0.7637192957746466 -2.851282957746479
C 2.344694507042253 -3.565079295774647 -3.101282957746479
H 1.6334345070422536 -4.047909295774646 -2.4251929577464786
H 1.8561845070422536 -3.293109295774647 -4.041792957746479
H 3.1808045070422537 -4.243519295774647 -3.298122957746479
C 3.5156645070422536 -2.648489295774647 -1.1110629577464786
H 3.9311845070422535 -1.748249295774647 -0.6771029577464787
H 2.767184507042254 -3.1044092957746465 -0.45972295774647876
H 4.319224507042254 -3.371819295774647 -1.2863129577464787
C 2.963994507042253 3.381090704225353 2.401027042253521
H 3.3337945070422537 4.369820704225353 2.6912870422535216
H 3.120994507042253 2.671350704225353 3.2183370422535216
H 3.4665445070422534 3.0664207042253535 1.4881370422535212
C 1.2973745070422538 4.282440704225354 0.8488370422535213
H 1.7592145070422538 3.7367207042253527 0.02653704225352116
H 0.23311450704225378 4.4484607042253534 0.6605570422535213
H 1.7921845070422535 5.251370704225354 0.9736770422535213
C 0.7724845070422537 4.194670704225353 3.2772470422535216
H -0.2956954929577462 4.278220704225354 3.057857042253521
H 0.9298945070422537 3.612620704225354 4.190337042253521
H 1.2046345070422537 5.193640704225353 3.3918370422535213
N 2.876084507042253 -2.324759295774647 -2.4576629577464786
N 1.4527845070422536 3.504690704225353 2.1388470422535213
C -3.593905492957746 -3.637819295774647 0.8297870422535213
H -2.8952554929577463 -1.8680692957746468 1.7595270422535212
H -5.022615492957747 -1.2402792957746467 1.1579970422535213
H -4.898275492957747 -1.7933092957746464 -0.48931295774647876
H -3.883675492957746 0.07871070422535364 -1.2758929577464788
H -3.8751654929577466 -4.038529295774646 -0.1505529577464788
H -4.4603554929577465 -3.7321892957746465 1.4932570422535212
H -2.7953554929577464 -4.271929295774647 1.2313670422535212
H -5.648775492957746 1.147700704225353 0.9733970422535213
H -6.189795492957747 0.5254307042253537 -0.5943629577464788
H -5.2178854929577465 2.002970704225354 -0.5139729577464787
C 3.6710445070422537 1.0263707042253536 -0.27764295774647874
O 2.7356545070422538 1.6631507042253526 -0.7327029577464788
O 3.650814507042253 0.3883007042253537 0.7790570422535212
O 4.756604507042254 0.8696707042253538 -0.8334829577464786
O -5.7250719752753145 -4.428188619303131 -10.904848017903769
H -6.573600211369623 -4.844230051396242 -11.119036524207438
H -5.11262509344367 -4.794746916333462 -11.560214919809043
O 13.569318053058286 3.436654697659205 -3.925939242077815
H 13.731194105367766 3.3388286770417643 -2.9755742751946417
H 13.51979325057447 4.395409577349922 -4.0574623157499765
O -3.323155839117553 0.5058362817857653 -4.30715903775909
H -2.4655139651134794 0.05925487241022931 -4.370268606407127
H -3.904705105117914 -0.023073272736064965 -4.873742728532095
O 10.129867966699326 5.067345950196385 -11.392791797530034
H 10.099427527010546 4.972588115213732 -12.356670259391777
H 10.845618167761494 5.70303635995719 -11.242587613441803
O -4.230367068863311 -2.3889445925783357 -2.714028491303137
H -5.1196708399592605 -2.4139988107214965 -2.3299992661551556
H -4.110799423217357 -1.4612783321090212 -2.9672099116355968
O 2.0680614377280184 4.395229357334886 -8.07471740241511
H 2.28435228117381 4.057154804055202 -8.956698821928159
H 2.175252460626944 5.354586609026837 -8.159012672365135
O -11.671274596072074 0.43278946937748874 0.1320958209658185
H -12.487842971923104 0.6022143466015004 -0.3613397426467362
H -11.336611218954545 -0.3942339034937097 -0.24605059120945905
O 11.268170780904422 -5.740659313302567 -3.4864075406355655
H 12.197254202929342 -5.977519885974063 -3.3461633930493075
H 10.903106487095961 -5.684651778150599 -2.590554225805325
O 8.270412719893967 -5.142440917201177 8.421432886690923
H 8.621670504655212 -5.180971694171271 7.519157593462351
H 7.353290337142751 -4.852760195695973 8.303392389636084
O -0.126019328880143 0.34270606799715764 -5.095701631861861
H -0.8886025858149682 -0.12819132293420554 -5.4640625694715785
H -0.512895417257512 1.132277081210753 -4.6884345798742455
O 3.7809246094045545 3.612420643422173 6.992143143379993
H 3.032680418519612 3.098146247414367 7.330698653330348
H 3.4595836928099284 3.9659956954977362 6.149120817357789
O 0.8405903531003083 -11.230555427004195 -7.656222532777274
H 1.1165032498072673 -12.154779837600373 -7.749220754206084
H 0.5155722453689189 -11.173864438546946 -6.745118089930877
O 8.242362238996538 9.636930642779 3.4363608651642776
H 8.052959367608615 10.517996587521697 3.7924742041796393
H 9.192405291304166 9.522166678707922 3.588707101129263
O 7.657368426482736 2.0206721940841383 -8.071649400258035
H 8.624150565143553 1.9808504587920153 -8.019554461302878
H 7.470650956089392 2.9554628178904307 -8.245617846229573
O -2.5060785231130622 4.671034118659497 -0.26666363020880435
H -2.514809608040914 4.862342667931176 0.6832269761409739
H -2.075476255666278 3.805069322714524 -0.3270673035546269
O -2.3838255435330344 -3.2279966187620737 -7.608095056046981
H -2.9877732934320873 -3.2558235755217613 -6.850836756145707
H -1.505479338171947 -3.325562893336179 -7.210664923956436
O -3.0412919112847208 8.059117808234795 -1.7825180839541281
H -3.2601344701985755 8.973298891323308 -1.5472560202227306
H -3.6205892942576248 7.526773310412021 -1.2168451908272246
O -9.986375885526135 8.068088234362795 7.9114135094984235
H -9.996345040154594 8.937843878680162 8.338488552124513
H -9.470940526982334 7.5154195281771035 8.517916301467146
O -11.62251309601246 3.951423086450637 -0.4074990249543313
H -11.330725071645668 4.204112045558205 -1.2963046255674566
H -11.378892303077267 4.71041968441685 0.1434410968605
O 10.471580290080636 -0.6464696657803057 5.537316045548743
H 10.538492054751579 -0.6242178102952969 6.503750227258028
H 11.071812514994697 0.055798962048593914 5.24490880411647
O 5.13510386957734 7.376148614698453 -1.327543857451942
H 4.977198636363878 8.012733116313063 -0.6142462571981049
H 5.987694417864037 6.976001504575995 -1.0996544291476973
O 2.990469547941779 -8.403403147415698 -2.7990703893424493
H 2.830787373602417 -8.776044413441983 -1.9189525296483163
H 3.9178896369215113 -8.618509777019733 -2.9795781752056016
O 0.9932405796931707 -9.13407172273239 -5.600789852851358
H 1.2711939171936124 -9.750715101435883 -6.294663214909239
H 0.7883696000791365 -9.707117259395526 -4.846728423707523
O 9.519816233906724 -3.060885959450803 6.42026890693978
H 9.42291982157505 -2.5038603021774075 5.63331219954325
H 9.988089780051709 -3.844786493779934 6.09595149673906
C 7.364938381969594 2.0715952875977934 4.873680602766135
O 7.004939275443774 0.9303216938198666 4.8469694675257955
O 7.724937488495416 3.21286888137572 4.900391738006475