146

C -5.3564454929577465 1.0091607042253532 -0.0734429577464788
C -4.079135492957747 0.16955070422535368 -0.19788295774647868
C -4.333545492957747 -1.2789292957746463 0.3017270422535212
C -3.1403854929577464 -2.1745492957746464 0.7330270422535212
C -2.905235492957746 0.902300704225353 0.41966704225352136
C -2.7423854929577463 1.056130704225354 1.8024770422535212
C -1.8861754929577463 1.3499307042253532 -0.4326129577464788
C -1.5304554929577463 1.5279207042253526 2.3254170422535214
H -3.5237954929577464 0.7301007042253529 2.484817042253521
C -0.6776454929577462 1.8010507042253527 0.08546704225352131
H -1.9759254929577463 1.2426607042253535 -1.5115229577464788
C -0.4680254929577463 1.8513207042253539 1.4698070422535212
H -1.3950654929577464 1.5446707042253527 3.404047042253521
H 0.1461845070422536 1.9972507042253538 -0.6030529577464789
C -1.8679654929577463 -2.0866092957746467 -0.08765295774647863
C -0.6628654929577462 -1.814079295774647 0.5787970422535212
C -1.8438954929577462 -2.213429295774647 -1.4808029577464787
C 0.5129345070422537 -1.5763292957746469 -0.13022295774647863
H -0.6401854929577462 -1.7032692957746463 1.6609470422535213
C -0.6547954929577462 -1.9962392957746466 -2.1933129577464787
H -2.7578654929577464 -2.4351492957746466 -2.026182957746479
C 0.5308845070422537 -1.645769295774647 -1.5261029577464789
H 1.4044045070422537 -1.2610992957746463 0.41551704225352126
H -0.6795654929577464 -2.0467992957746466 -3.2793129577464786
C 1.7843245070422535 -1.2521692957746469 -2.2771629577464787
H 1.4981245070422535 -0.9384492957746469 -3.290282957746479
H 2.241984507042254 -0.38631929577464685 -1.8135029577464787
C 0.9385645070422537 2.0647807042253534 1.9815670422535212
H 1.0508945070422537 1.5807407042253532 2.9609770422535213
H 1.6053245070422537 1.5496207042253536 1.3096170422535214
C 3.9676945070422533 -1.6881692957746468 -3.314052957746479
H 4.795084507042254 -2.398849295774647 -3.4044129577464783
H 3.548404507042253 -1.4816192957746468 -4.303802957746479
H 4.307714507042253 -0.7637192957746466 -2.851282957746479
C 2.344694507042253 -3.565079295774647 -3.101282957746479
H 1.6334345070422536 -4.047909295774646 -2.4251929577464786
H 1.8561845070422536 -3.293109295774647 -4.041792957746479
H 3.1808045070422537 -4.243519295774647 -3.298122957746479
C 3.5156645070422536 -2.648489295774647 -1.1110629577464786
H 3.9311845070422535 -1.748249295774647 -0.6771029577464787
H 2.767184507042254 -3.1044092957746465 -0.45972295774647876
H 4.319224507042254 -3.371819295774647 -1.2863129577464787
C 2.963994507042253 3.381090704225353 2.401027042253521
H 3.3337945070422537 4.369820704225353 2.6912870422535216
H 3.120994507042253 2.671350704225353 3.2183370422535216
H 3.4665445070422534 3.0664207042253535 1.4881370422535212
C 1.2973745070422538 4.282440704225354 0.8488370422535213
H 1.7592145070422538 3.7367207042253527 0.02653704225352116
H 0.23311450704225378 4.4484607042253534 0.6605570422535213
H 1.7921845070422535 5.251370704225354 0.9736770422535213
C 0.7724845070422537 4.194670704225353 3.2772470422535216
H -0.2956954929577462 4.278220704225354 3.057857042253521
H 0.9298945070422537 3.612620704225354 4.190337042253521
H 1.2046345070422537 5.193640704225353 3.3918370422535213
N 2.876084507042253 -2.324759295774647 -2.4576629577464786
N 1.4527845070422536 3.504690704225353 2.1388470422535213
C -3.593905492957746 -3.637819295774647 0.8297870422535213
H -2.8952554929577463 -1.8680692957746468 1.7595270422535212
H -5.022615492957747 -1.2402792957746467 1.1579970422535213
H -4.898275492957747 -1.7933092957746464 -0.48931295774647876
H -3.883675492957746 0.07871070422535364 -1.2758929577464788
H -3.8751654929577466 -4.038529295774646 -0.1505529577464788
H -4.4603554929577465 -3.7321892957746465 1.4932570422535212
H -2.7953554929577464 -4.271929295774647 1.2313670422535212
H -5.648775492957746 1.147700704225353 0.9733970422535213
H -6.189795492957747 0.5254307042253537 -0.5943629577464788
H -5.2178854929577465 2.002970704225354 -0.5139729577464787
C 3.6710445070422537 1.0263707042253536 -0.27764295774647874
O 2.7356545070422538 1.6631507042253526 -0.7327029577464788
O 3.650814507042253 0.3883007042253537 0.7790570422535212
O 4.756604507042254 0.8696707042253538 -0.8334829577464786
O 0.884512250820965 -7.788313576411906 -1.7777461887699937
H 1.75996157553498 -7.466379810691276 -1.515230499245138
H 0.6322990911162243 -7.208320058110028 -2.5118837679059203
O 1.458021812770371 -6.279128419625653 -12.913323968963423
H 1.3958236310608505 -6.132413179566784 -13.869134296081986
H 2.022754188655209 -5.5559556342206555 -12.601778770995226
O -9.458178230271505 1.2488394296591094 -0.6397658096309777
H -9.686876642353472 0.6555196025929138 -1.3709538675349124
H -9.563727726254173 0.6979908068791509 0.15041584225624938
O -5.59679665547747 -6.0891133216514515 -7.742184947648191
H -6.131446141905578 -6.115075132164889 -8.549924551702013
H -5.035168672197002 -5.30804659674076 -7.858248395527359
O 4.39710705170277 4.170036888084571 11.445941658053101
H 4.050385991729889 4.194013843369298 12.35047301134416
H 5.2645307935402315 3.7482540487405815 11.538878372174159
O 3.181288287087911 9.53645175738683 -5.038765573247266
H 2.3030858832429493 9.37013048598514 -4.664512811787507
H 3.7677176948669238 8.961897331125101 -4.5240329190907485
O -4.862791426285039 -1.3726589460091467 -10.061713225527296
H -4.076598331764645 -0.8097306906206818 -9.998629516744867
H -5.417842831612604 -1.0832564044543005 -9.322033530871906
O -8.26201635155407 1.7834396073748908 2.614217819753928
H -9.057374228480676 1.499223622210423 2.1392499489586534
H -8.112134680137862 2.6876334922272926 2.299685075084945
O -2.3767587597399826 -14.969152628604704 -5.80889370525966
H -2.0471135974222205 -15.852405712226798 -5.584917335674476
H -3.054586146360453 -15.13578504360741 -6.48101394488768
O 2.4565198455412856 5.311318374269039 6.982082909550284
H 2.469212469019517 5.313103101255965 7.951001414358002
H 1.742872586721668 5.926668107853939 6.756219588809098
O 1.3431390935833254 3.48858166421862 -7.357534655471172
H 0.4523187043897755 3.4217613917997243 -6.982112969508683
H 1.7522282498280664 2.6368845692914764 -7.142546132438826
O -3.3856095545639744 -2.164970418361155 9.374423849020717
H -4.186945350818414 -2.422981669811797 9.854276422907883
H -2.8667986007221993 -2.9821091501682098 9.328801141357275
O -9.89596841256354 8.504973642865739 -3.0896305657422936
H -10.758242831173487 8.222650596640024 -3.429842090357072
H -9.368007385421462 7.692439793708758 -3.0868301919779526
O -5.775498303558501 -4.833909537388344 3.366770322438973
H -5.5432320025775415 -4.850647056559627 4.30737628551842
H -6.43145329971641 -4.123796028205069 3.3002587340434877
O -4.614086048846689 -8.294490695469552 2.651620934663713
H -4.881799995173019 -8.388062176316646 3.5781957982416466
H -4.7756335601397275 -7.359589651344272 2.454581893891372
O 5.325903730158458 6.644500703375561 -4.592843909726661
H 4.922582144776293 6.330353029172326 -3.7696730316840066
H 4.690167554793247 6.388073964728047 -5.2777138151383465
O -6.22196366184363 3.6463391387104065 -1.8503412402182955
H -6.147194741524477 4.3750695514599816 -1.2160471830270407
H -6.045826175196432 4.062942538205236 -2.7073004794047097
O -2.814486829533788 9.949275415550641 2.71253146067882
H -2.2882811109608956 10.026518505736583 3.5225366481064766
H -2.248798415474026 9.439023154923236 2.1136982676916793
O -1.8321731693785088 -6.031450655971145 -5.555947683681987
H -1.1847908696535674 -6.085835246316426 -4.836986049632003
H -2.6016331455327975 -6.511620328832308 -5.214875294501854
O 5.784544924930499 -0.40282806904059104 9.318290048685535
H 6.241936078115751 -0.3717119791713694 10.171983482442123
H 5.981629619300069 0.4562698609707819 8.915710473700132
O -0.23684843090860852 -7.563451576894836 0.8710978874216473
H -0.43089843252683924 -7.590652015845042 1.820082655419997
H 0.6124020725288508 -8.023418587293811 0.7925747949211018
O -12.428174370592195 0.13773284280837572 -0.4859621782290522
H -11.755237341430734 -0.37058553916045245 -0.9631786220320078
H -12.004244494793404 0.35228966220130786 0.358555894968442
O 9.169620626865491 -7.761234717500084 7.995327332182862
H 9.709760664149329 -7.5164761360888654 8.76168843104461
H 8.433940837976484 -7.130929143780541 8.016589417177125
O 5.2612698314798 -5.8325262482622735 9.226177554507212
H 5.126413090651056 -6.770066050103035 9.021726738129694
H 4.502912738614112 -5.603194765710295 9.784087524942242
C 3.9749644031299276 7.6814192387592355 1.8066298022377216
O 4.485042385423503 7.546816156797699 0.73214354378405
O 3.4648864208363506 7.816022320720771 2.881116060691393