146

C -5.3564454929577465 1.0091607042253532 -0.0734429577464788
C -4.079135492957747 0.16955070422535368 -0.19788295774647868
C -4.333545492957747 -1.2789292957746463 0.3017270422535212
C -3.1403854929577464 -2.1745492957746464 0.7330270422535212
C -2.905235492957746 0.902300704225353 0.41966704225352136
C -2.7423854929577463 1.056130704225354 1.8024770422535212
C -1.8861754929577463 1.3499307042253532 -0.4326129577464788
C -1.5304554929577463 1.5279207042253526 2.3254170422535214
H -3.5237954929577464 0.7301007042253529 2.484817042253521
C -0.6776454929577462 1.8010507042253527 0.08546704225352131
H -1.9759254929577463 1.2426607042253535 -1.5115229577464788
C -0.4680254929577463 1.8513207042253539 1.4698070422535212
H -1.3950654929577464 1.5446707042253527 3.404047042253521
H 0.1461845070422536 1.9972507042253538 -0.6030529577464789
C -1.8679654929577463 -2.0866092957746467 -0.08765295774647863
C -0.6628654929577462 -1.814079295774647 0.5787970422535212
C -1.8438954929577462 -2.213429295774647 -1.4808029577464787
C 0.5129345070422537 -1.5763292957746469 -0.13022295774647863
H -0.6401854929577462 -1.7032692957746463 1.6609470422535213
C -0.6547954929577462 -1.9962392957746466 -2.1933129577464787
H -2.7578654929577464 -2.4351492957746466 -2.026182957746479
C 0.5308845070422537 -1.645769295774647 -1.5261029577464789
H 1.4044045070422537 -1.2610992957746463 0.41551704225352126
H -0.6795654929577464 -2.0467992957746466 -3.2793129577464786
C 1.7843245070422535 -1.2521692957746469 -2.2771629577464787
H 1.4981245070422535 -0.9384492957746469 -3.290282957746479
H 2.241984507042254 -0.38631929577464685 -1.8135029577464787
C 0.9385645070422537 2.0647807042253534 1.9815670422535212
H 1.0508945070422537 1.5807407042253532 2.9609770422535213
H 1.6053245070422537 1.5496207042253536 1.3096170422535214
C 3.9676945070422533 -1.6881692957746468 -3.314052957746479
H 4.795084507042254 -2.398849295774647 -3.4044129577464783
H 3.548404507042253 -1.4816192957746468 -4.303802957746479
H 4.307714507042253 -0.7637192957746466 -2.851282957746479
C 2.344694507042253 -3.565079295774647 -3.101282957746479
H 1.6334345070422536 -4.047909295774646 -2.4251929577464786
H 1.8561845070422536 -3.293109295774647 -4.041792957746479
H 3.1808045070422537 -4.243519295774647 -3.298122957746479
C 3.5156645070422536 -2.648489295774647 -1.1110629577464786
H 3.9311845070422535 -1.748249295774647 -0.6771029577464787
H 2.767184507042254 -3.1044092957746465 -0.45972295774647876
H 4.319224507042254 -3.371819295774647 -1.2863129577464787
C 2.963994507042253 3.381090704225353 2.401027042253521
H 3.3337945070422537 4.369820704225353 2.6912870422535216
H 3.120994507042253 2.671350704225353 3.2183370422535216
H 3.4665445070422534 3.0664207042253535 1.4881370422535212
C 1.2973745070422538 4.282440704225354 0.8488370422535213
H 1.7592145070422538 3.7367207042253527 0.02653704225352116
H 0.23311450704225378 4.4484607042253534 0.6605570422535213
H 1.7921845070422535 5.251370704225354 0.9736770422535213
C 0.7724845070422537 4.194670704225353 3.2772470422535216
H -0.2956954929577462 4.278220704225354 3.057857042253521
H 0.9298945070422537 3.612620704225354 4.190337042253521
H 1.2046345070422537 5.193640704225353 3.3918370422535213
N 2.876084507042253 -2.324759295774647 -2.4576629577464786
N 1.4527845070422536 3.504690704225353 2.1388470422535213
C -3.593905492957746 -3.637819295774647 0.8297870422535213
H -2.8952554929577463 -1.8680692957746468 1.7595270422535212
H -5.022615492957747 -1.2402792957746467 1.1579970422535213
H -4.898275492957747 -1.7933092957746464 -0.48931295774647876
H -3.883675492957746 0.07871070422535364 -1.2758929577464788
H -3.8751654929577466 -4.038529295774646 -0.1505529577464788
H -4.4603554929577465 -3.7321892957746465 1.4932570422535212
H -2.7953554929577464 -4.271929295774647 1.2313670422535212
H -5.648775492957746 1.147700704225353 0.9733970422535213
H -6.189795492957747 0.5254307042253537 -0.5943629577464788
H -5.2178854929577465 2.002970704225354 -0.5139729577464787
C 3.6710445070422537 1.0263707042253536 -0.27764295774647874
O 2.7356545070422538 1.6631507042253526 -0.7327029577464788
O 3.650814507042253 0.3883007042253537 0.7790570422535212
O 4.756604507042254 0.8696707042253538 -0.8334829577464786
O -10.432611318947451 1.7132184035851223 2.5311878169409816
H -11.056736153458544 1.4751644038329823 1.829214996207508
H -9.566285937380965 1.4867991721634068 2.160814209355235
O -8.780495510635825 3.050939646425786 8.887549161661306
H -9.715100851476816 3.029340504241697 9.142526985850806
H -8.788318655656395 3.4461801193517267 8.002853897028752
O 2.6520320546422895 2.2014612011995496 11.050401650642097
H 2.555981406623055 2.7625622252769713 11.834561883435342
H 3.426560894063258 2.56525237236447 10.595733634406447
O -3.567335171845588 -6.703806419191466 -7.692338266882061
H -3.3153383977561792 -7.5102045976118115 -7.217799585014205
H -2.753984071877024 -6.43489170092208 -8.145225456784827
O 2.43245552270789 -7.265552190683248 0.5875052744409297
H 1.5453441111066515 -7.606756407829076 0.3988776452113756
H 3.0210580327713177 -7.86254952734457 0.10160074733059288
O -3.9954857340796557 -4.886572977499778 -12.420226392883128
H -3.856690405745932 -4.799311917537542 -13.375259754157488
H -4.007960641440802 -5.844095262734146 -12.27204611664542
O -8.337956193865054 -1.4234458468529407 1.131041376131885
H -8.422884280202016 -1.6060722299922148 0.18320057661299438
H -8.399217789950706 -0.4581723282265733 1.1898290906963243
O 10.343065056998649 -4.794129567085739 -2.0755748195197694
H 10.042352982601694 -4.95021555270586 -1.167732999429466
H 10.274399663644767 -3.8335524976930198 -2.1829931690344218
O -4.765891674104539 -8.214943379262056 -9.30576840186574
H -5.132469917985582 -8.318861020241133 -10.196716701098882
H -5.179791434205055 -8.928714623687647 -8.79765469065546
O 2.533292261911642 -2.418048775922406 7.0935709221972605
H 2.5984472140886563 -1.4889823260589836 7.3610736714261
H 3.25713762411899 -2.530281685371413 6.459210133727856
O -6.981359259682591 -4.811448802843454 10.033265498247324
H -7.882719446277006 -4.9447897651830655 9.703512016560124
H -6.465166502042882 -5.500583863236445 9.588743451777793
O 9.152003656931418 0.42978300612871134 -6.979488574569835
H 10.08433015718527 0.1659896820875848 -6.967333904038044
H 8.908008719035973 0.4703743838067469 -6.042589031054313
O -5.93014838241036 9.372034598679413 -6.028754292144594
H -4.977065110808149 9.407157391791245 -5.857389115705355
H -6.133513002586741 10.243744060077276 -6.399870703085908
O 3.029470270259641 2.1567686005111915 -2.402465476773946
H 2.9259303995452575 2.7833611651764647 -3.1343320014754417
H 2.728899910272272 2.652234741403547 -1.6258492869953016
O -7.8310654191315 -2.9042210146097984 -4.888666083412428
H -8.399500742449549 -2.792015596832514 -5.665363311633138
H -8.021626212871434 -3.8052555566550263 -4.587360122252425
O -7.223586374436861 -6.737289006172844 4.5509109588293
H -6.806502966815739 -7.347987095432632 5.177055216777577
H -7.430976730633587 -7.293099956008707 3.7847351483920693
O -5.955294354507445 5.1491407813795895 14.403200290680893
H -6.588570747354633 4.797746698942253 15.046978642282186
H -5.3461898762104285 4.411755943657853 14.247581268975306
O 5.631218546520666 2.4645082299902685 -5.952787769756927
H 5.3136993961629235 2.878821310379163 -6.769178373251825
H 6.378517101808736 1.9197118865961627 -6.242103786922884
O 6.897824652304321 -7.147690778973828 -3.569744584279212
H 7.339599300328606 -6.755196313963037 -4.337696804276598
H 6.305897635162358 -7.811582688037677 -3.954233704745548
O 2.6675052725425026 10.565881593212676 -1.310830063418741
H 3.192242026086162 9.876608255184042 -0.8766400567818704
H 3.2659635147548105 11.327080743207146 -1.3480527806200602
O 5.136092614992243 4.99586632492888 0.5867640862774555
H 4.54840671803249 5.685721580002803 0.24370086985589934
H 5.735696803327291 5.472893575044411 1.1799603137420962
O 1.516455184659915 8.439462190462862 1.4812860730462163
H 1.6289511904499467 8.419359894457763 0.5190449892856994
H 1.4872673897700879 7.504212378141471 1.7331149941062745
O 0.10425943133081267 8.003487710334833 -7.2295654773113585
H 0.255877939027869 7.799219928615225 -8.16458090947014
H 0.5523200270498998 8.852834180009985 -7.099895815037518
O 5.486466085036421 7.892264666809641 7.876696844266451
H 5.24594740694735 8.781399917248791 8.177623128955567
H 6.454872890585195 7.887767343292317 7.910311979964495
C 1.6861631879141994 10.243788992852538 -3.842645222273795
O 0.6849002378570226 10.188778737471228 -3.18899039444363
O 2.687426137971376 10.298799248233848 -4.496300050103961