146

C -5.3564454929577465 1.0091607042253532 -0.0734429577464788
C -4.079135492957747 0.16955070422535368 -0.19788295774647868
C -4.333545492957747 -1.2789292957746463 0.3017270422535212
C -3.1403854929577464 -2.1745492957746464 0.7330270422535212
C -2.905235492957746 0.902300704225353 0.41966704225352136
C -2.7423854929577463 1.056130704225354 1.8024770422535212
C -1.8861754929577463 1.3499307042253532 -0.4326129577464788
C -1.5304554929577463 1.5279207042253526 2.3254170422535214
H -3.5237954929577464 0.7301007042253529 2.484817042253521
C -0.6776454929577462 1.8010507042253527 0.08546704225352131
H -1.9759254929577463 1.2426607042253535 -1.5115229577464788
C -0.4680254929577463 1.8513207042253539 1.4698070422535212
H -1.3950654929577464 1.5446707042253527 3.404047042253521
H 0.1461845070422536 1.9972507042253538 -0.6030529577464789
C -1.8679654929577463 -2.0866092957746467 -0.08765295774647863
C -0.6628654929577462 -1.814079295774647 0.5787970422535212
C -1.8438954929577462 -2.213429295774647 -1.4808029577464787
C 0.5129345070422537 -1.5763292957746469 -0.13022295774647863
H -0.6401854929577462 -1.7032692957746463 1.6609470422535213
C -0.6547954929577462 -1.9962392957746466 -2.1933129577464787
H -2.7578654929577464 -2.4351492957746466 -2.026182957746479
C 0.5308845070422537 -1.645769295774647 -1.5261029577464789
H 1.4044045070422537 -1.2610992957746463 0.41551704225352126
H -0.6795654929577464 -2.0467992957746466 -3.2793129577464786
C 1.7843245070422535 -1.2521692957746469 -2.2771629577464787
H 1.4981245070422535 -0.9384492957746469 -3.290282957746479
H 2.241984507042254 -0.38631929577464685 -1.8135029577464787
C 0.9385645070422537 2.0647807042253534 1.9815670422535212
H 1.0508945070422537 1.5807407042253532 2.9609770422535213
H 1.6053245070422537 1.5496207042253536 1.3096170422535214
C 3.9676945070422533 -1.6881692957746468 -3.314052957746479
H 4.795084507042254 -2.398849295774647 -3.4044129577464783
H 3.548404507042253 -1.4816192957746468 -4.303802957746479
H 4.307714507042253 -0.7637192957746466 -2.851282957746479
C 2.344694507042253 -3.565079295774647 -3.101282957746479
H 1.6334345070422536 -4.047909295774646 -2.4251929577464786
H 1.8561845070422536 -3.293109295774647 -4.041792957746479
H 3.1808045070422537 -4.243519295774647 -3.298122957746479
C 3.5156645070422536 -2.648489295774647 -1.1110629577464786
H 3.9311845070422535 -1.748249295774647 -0.6771029577464787
H 2.767184507042254 -3.1044092957746465 -0.45972295774647876
H 4.319224507042254 -3.371819295774647 -1.2863129577464787
C 2.963994507042253 3.381090704225353 2.401027042253521
H 3.3337945070422537 4.369820704225353 2.6912870422535216
H 3.120994507042253 2.671350704225353 3.2183370422535216
H 3.4665445070422534 3.0664207042253535 1.4881370422535212
C 1.2973745070422538 4.282440704225354 0.8488370422535213
H 1.7592145070422538 3.7367207042253527 0.02653704225352116
H 0.23311450704225378 4.4484607042253534 0.6605570422535213
H 1.7921845070422535 5.251370704225354 0.9736770422535213
C 0.7724845070422537 4.194670704225353 3.2772470422535216
H -0.2956954929577462 4.278220704225354 3.057857042253521
H 0.9298945070422537 3.612620704225354 4.190337042253521
H 1.2046345070422537 5.193640704225353 3.3918370422535213
N 2.876084507042253 -2.324759295774647 -2.4576629577464786
N 1.4527845070422536 3.504690704225353 2.1388470422535213
C -3.593905492957746 -3.637819295774647 0.8297870422535213
H -2.8952554929577463 -1.8680692957746468 1.7595270422535212
H -5.022615492957747 -1.2402792957746467 1.1579970422535213
H -4.898275492957747 -1.7933092957746464 -0.48931295774647876
H -3.883675492957746 0.07871070422535364 -1.2758929577464788
H -3.8751654929577466 -4.038529295774646 -0.1505529577464788
H -4.4603554929577465 -3.7321892957746465 1.4932570422535212
H -2.7953554929577464 -4.271929295774647 1.2313670422535212
H -5.648775492957746 1.147700704225353 0.9733970422535213
H -6.189795492957747 0.5254307042253537 -0.5943629577464788
H -5.2178854929577465 2.002970704225354 -0.5139729577464787
C 3.6710445070422537 1.0263707042253536 -0.27764295774647874
O 2.7356545070422538 1.6631507042253526 -0.7327029577464788
O 3.650814507042253 0.3883007042253537 0.7790570422535212
O 4.756604507042254 0.8696707042253538 -0.8334829577464786
O -5.0322801658517475 -9.918427006060448 0.7013960636089405
H -5.37973507724516 -9.760026986261886 1.5919868086632627
H -5.631845531677942 -9.421783413342819 0.12448319478538261
O -8.88518206841722 10.346250889480487 3.5339420789139
H -8.453863520263319 10.27285542912526 2.669335362933937
H -8.447984540407342 11.10434667686372 3.9500082310506106
O 8.689771557344312 0.4413203189580528 -5.10627967480014
H 9.619043926637374 0.16669807403075465 -5.107965841918626
H 8.538851010910896 0.7620421218476232 -6.008123595950302
O 1.1307713732432267 -8.922046028337443 -9.854328120607079
H 0.6071456489947131 -9.479864433960742 -10.4489894394711
H 0.4914687193052547 -8.278416202870341 -9.513748161218604
O 3.358284748112109 -3.2237775684096386 -7.775902490866685
H 3.3569105824709857 -3.1955641035657365 -6.807311003721412
H 3.811288891725865 -4.054400383319132 -7.985222651196732
O 3.614099166114422 -6.38378965470182 0.02695454317185611
H 3.376822358526688 -6.376700920191972 0.9664314312984471
H 3.1637040164791657 -7.167452690290955 -0.3222995192758913
O 5.340762321188093 -5.232512708233268 -0.10712902943180469
H 5.31539950899774 -5.205907648623419 0.8611768393209126
H 4.461496467445327 -4.923906696302497 -0.3728654254000449
O -6.3562601517408615 9.878386632037 2.337142879623159
H -6.875583860732101 10.007467420289343 3.1449846910464947
H -6.6967772866611925 9.048777697553025 1.970047468387861
O 1.1517424180357443 -6.800965438502181 -7.146383160500676
H 1.5346846292468874 -6.501786667822324 -7.984723594302608
H 1.3950820310178416 -6.105867988701134 -6.516631374211979
O -3.850636524927504 4.260648936909974 -3.4552307408925365
H -4.035648455358627 3.9166086896265413 -2.5684532881191227
H -4.607064706283777 3.964709618321011 -3.983622896836528
O 4.953509126981391 10.223487540760075 7.614245448077714
H 4.961597909808862 11.136672970123207 7.9382736877285875
H 5.8549835719886465 9.908641353573621 7.77910189385104
O 8.780426462515553 1.2049934751232234 10.10678351415774
H 9.410310872642729 1.7853877364751494 9.653621856282214
H 7.995916275419977 1.7606074116571566 10.228434096451998
O 8.431056712151527 -4.76830438325084 -0.3531069764691255
H 9.171941237377851 -5.153202724281652 0.1387372511597995
H 8.823718221090227 -4.503479951959685 -1.1984748870792323
O -3.058459952608422 0.4713719418662088 -5.255885201648132
H -2.62153265078467 1.133755526674904 -5.812041543333632
H -2.6776271842050052 -0.369558907241621 -5.55044190897114
O -0.6718506001887947 10.319859798967823 -7.254103581946402
H -0.7743113061965241 10.372719860254254 -6.291983540296092
H -0.5575688459242336 11.242191709020899 -7.528339744113351
O 6.6322209432478 -5.040818681512195 5.898741403093108
H 6.436725198395191 -5.368962870178036 6.7892862711875575
H 6.078509629779098 -5.587369698534669 5.32111893865075
O 8.888869413062945 3.726264940712062 4.7849700303477585
H 9.64820105813788 4.328075124011283 4.770571663594816
H 9.066544270986627 3.1432394209176424 5.538279284525779
O -8.491572159259226 5.963584430619683 5.302065755900995
H -8.733812333183929 6.901817331268026 5.299600157003014
H -7.770229928022522 5.909786322659479 5.946839431941167
O 8.132310789551545 -0.46828857214403063 -1.8682620548798643
H 8.894388649128596 -0.880476079928838 -1.4343194880941086
H 7.474263849754707 -1.1783691048105074 -1.9097567105852808
O -0.592243663194159 -5.575229883270616 -11.059699851368475
H -1.152507728968378 -4.790791956491457 -10.961065818030288
H 0.3101042450109448 -5.227972673134247 -10.995336609792414
O -2.009933921189818 -3.1512401077330034 12.090809664009145
H -2.020472442077609 -3.154560708966308 13.059749946010543
H -2.520190392195113 -3.9385651623999824 11.848488520914158
O -7.1585322789641825 -2.054091939023569 -2.8676650636022347
H -7.36009406882058 -2.5108790136687547 -3.6981382842463324
H -6.971620219514584 -2.772467805935701 -2.2447991549424735
O 5.093516677331834 12.559950208827077 4.059546290946677
H 5.3027291522660125 13.483664619863259 3.854731291310422
H 5.83531371867008 12.26862561653246 4.610753217323876
O 10.531617663592808 -7.135793727306144 6.510955390736658
H 10.459122941044711 -8.00014249192018 6.942942757696464
H 11.486754882148556 -6.9941090411022255 6.429713235885355
C 1.5931993688649522 -6.82287061063102 7.18029029503652
O 1.7781856711374866 -7.026280422874422 8.345289339480178
O 1.4082130665924186 -6.619460798387619 6.01529125059286