146

C -5.3564454929577465 1.0091607042253532 -0.0734429577464788
C -4.079135492957747 0.16955070422535368 -0.19788295774647868
C -4.333545492957747 -1.2789292957746463 0.3017270422535212
C -3.1403854929577464 -2.1745492957746464 0.7330270422535212
C -2.905235492957746 0.902300704225353 0.41966704225352136
C -2.7423854929577463 1.056130704225354 1.8024770422535212
C -1.8861754929577463 1.3499307042253532 -0.4326129577464788
C -1.5304554929577463 1.5279207042253526 2.3254170422535214
H -3.5237954929577464 0.7301007042253529 2.484817042253521
C -0.6776454929577462 1.8010507042253527 0.08546704225352131
H -1.9759254929577463 1.2426607042253535 -1.5115229577464788
C -0.4680254929577463 1.8513207042253539 1.4698070422535212
H -1.3950654929577464 1.5446707042253527 3.404047042253521
H 0.1461845070422536 1.9972507042253538 -0.6030529577464789
C -1.8679654929577463 -2.0866092957746467 -0.08765295774647863
C -0.6628654929577462 -1.814079295774647 0.5787970422535212
C -1.8438954929577462 -2.213429295774647 -1.4808029577464787
C 0.5129345070422537 -1.5763292957746469 -0.13022295774647863
H -0.6401854929577462 -1.7032692957746463 1.6609470422535213
C -0.6547954929577462 -1.9962392957746466 -2.1933129577464787
H -2.7578654929577464 -2.4351492957746466 -2.026182957746479
C 0.5308845070422537 -1.645769295774647 -1.5261029577464789
H 1.4044045070422537 -1.2610992957746463 0.41551704225352126
H -0.6795654929577464 -2.0467992957746466 -3.2793129577464786
C 1.7843245070422535 -1.2521692957746469 -2.2771629577464787
H 1.4981245070422535 -0.9384492957746469 -3.290282957746479
H 2.241984507042254 -0.38631929577464685 -1.8135029577464787
C 0.9385645070422537 2.0647807042253534 1.9815670422535212
H 1.0508945070422537 1.5807407042253532 2.9609770422535213
H 1.6053245070422537 1.5496207042253536 1.3096170422535214
C 3.9676945070422533 -1.6881692957746468 -3.314052957746479
H 4.795084507042254 -2.398849295774647 -3.4044129577464783
H 3.548404507042253 -1.4816192957746468 -4.303802957746479
H 4.307714507042253 -0.7637192957746466 -2.851282957746479
C 2.344694507042253 -3.565079295774647 -3.101282957746479
H 1.6334345070422536 -4.047909295774646 -2.4251929577464786
H 1.8561845070422536 -3.293109295774647 -4.041792957746479
H 3.1808045070422537 -4.243519295774647 -3.298122957746479
C 3.5156645070422536 -2.648489295774647 -1.1110629577464786
H 3.9311845070422535 -1.748249295774647 -0.6771029577464787
H 2.767184507042254 -3.1044092957746465 -0.45972295774647876
H 4.319224507042254 -3.371819295774647 -1.2863129577464787
C 2.963994507042253 3.381090704225353 2.401027042253521
H 3.3337945070422537 4.369820704225353 2.6912870422535216
H 3.120994507042253 2.671350704225353 3.2183370422535216
H 3.4665445070422534 3.0664207042253535 1.4881370422535212
C 1.2973745070422538 4.282440704225354 0.8488370422535213
H 1.7592145070422538 3.7367207042253527 0.02653704225352116
H 0.23311450704225378 4.4484607042253534 0.6605570422535213
H 1.7921845070422535 5.251370704225354 0.9736770422535213
C 0.7724845070422537 4.194670704225353 3.2772470422535216
H -0.2956954929577462 4.278220704225354 3.057857042253521
H 0.9298945070422537 3.612620704225354 4.190337042253521
H 1.2046345070422537 5.193640704225353 3.3918370422535213
N 2.876084507042253 -2.324759295774647 -2.4576629577464786
N 1.4527845070422536 3.504690704225353 2.1388470422535213
C -3.593905492957746 -3.637819295774647 0.8297870422535213
H -2.8952554929577463 -1.8680692957746468 1.7595270422535212
H -5.022615492957747 -1.2402792957746467 1.1579970422535213
H -4.898275492957747 -1.7933092957746464 -0.48931295774647876
H -3.883675492957746 0.07871070422535364 -1.2758929577464788
H -3.8751654929577466 -4.038529295774646 -0.1505529577464788
H -4.4603554929577465 -3.7321892957746465 1.4932570422535212
H -2.7953554929577464 -4.271929295774647 1.2313670422535212
H -5.648775492957746 1.147700704225353 0.9733970422535213
H -6.189795492957747 0.5254307042253537 -0.5943629577464788
H -5.2178854929577465 2.002970704225354 -0.5139729577464787
C 3.6710445070422537 1.0263707042253536 -0.27764295774647874
O 2.7356545070422538 1.6631507042253526 -0.7327029577464788
O 3.650814507042253 0.3883007042253537 0.7790570422535212
O 4.756604507042254 0.8696707042253538 -0.8334829577464786
O 6.45995006810856 -12.14479375624262 4.161218033766727
H 6.169009900391292 -13.067882456953313 4.208424244469289
H 6.044663230444092 -11.728807339606902 4.931577747106683
O -4.659107697225769 -5.3651156116648995 -5.385749815940656
H -5.192679785499462 -5.534302299539224 -6.17672645792281
H -5.275183844270779 -4.9318230529746705 -4.776102636068682
O 0.1499352146046926 -15.062934942100435 5.5554709447307715
H -0.5513479506194632 -15.701771188785814 5.753100722330518
H 0.2810118974517217 -14.592826907489886 6.392596552574915
O 9.193074363387442 4.779403279258797 -6.95352018671402
H 9.144048768836106 5.086521371744443 -6.035782574295925
H 9.936450659047209 5.276131755738366 -7.327170354659186
O 6.058279345780733 -0.5177598526579119 11.468955092170242
H 6.017638815377856 0.01483202253189897 12.277448505050256
H 6.858859041295162 -0.20415954823042093 11.022089402624706
O -7.5444639653333745 0.713505520684419 -6.804820435190731
H -7.306920764179646 1.6075777240194142 -6.51641884069211
H -6.793742367040609 0.4366852908658041 -7.351400334674717
O -2.7575234734783995 0.02017902331366006 -12.802783734001324
H -2.2277016645867236 -0.6938616033216132 -12.417553684242664
H -2.886125901912528 0.6387622598819185 -12.068087783871217
O -0.9570521296066774 -12.476457988110319 4.133220388551163
H -0.5006772169206997 -12.437994035099601 3.2792825569207467
H -1.5468988471645453 -11.70781157966577 4.11820396848832
O 9.302788899349945 -1.4645371367916615 -1.2942649816544565
H 8.57817435621839 -2.044818711811373 -1.5720678154681038
H 10.102115324585121 -1.9590200191412928 -1.529904301980999
O 0.29604978978508245 8.399263120581619 -4.921345005770306
H 0.027799726810777914 8.527682827222728 -3.9991098733011
H 0.047617621002503885 9.229370576231066 -5.3551249198848065
O 10.609271134824642 5.984850981617452 3.7944124644389463
H 10.950297215454711 6.890176113454874 3.849684291744061
H 9.760017110729896 6.082096875115322 3.3380433341763034
O -3.2346335603824605 -4.578507290571829 -5.470973080957445
H -3.821077376350666 -3.8121292456523626 -5.383134024279525
H -2.4763040603679105 -4.23715707881298 -5.968344518255438
O -0.31720322790390054 -4.40619199070074 -6.03996916827396
H 0.024568447638663157 -4.926761482802081 -6.7823753122343815
H -0.06376019302592487 -3.496187339632992 -6.255886067582252
O 4.971154984891708 3.133878023223654 -12.397856730154853
H 4.870845676075421 3.171045293022435 -13.360937201102375
H 5.305678922949788 2.2397582897307307 -12.231707455872181
O -9.862671032561654 4.787419760652581 2.2561489255813196
H -9.474528433250166 4.9142939404395065 1.377390925900453
H -9.831593719666364 3.828137983377486 2.389470404387791
O -8.279616983960404 8.234690064972966 -4.080038408444048
H -8.232244351343594 8.248351212472869 -3.112290216181236
H -7.3735482070580565 8.43157163382434 -4.361532571206448
O 6.054580823473076 2.4739172782862555 6.522350396512778
H 5.818121835895894 2.397780795577696 5.585730014450362
H 6.817103277678142 1.8840052173881732 6.6199475867390385
O -7.991482156421217 -4.509560940137306 4.904972415759979
H -7.347455244763819 -3.9705015017199257 5.388306271199648
H -7.445720161291461 -5.066813887911524 4.3300159468260855
O 7.6023032796318155 5.498769990700595 3.18490200349032
H 7.912723761282825 5.068180728603627 2.374223664789732
H 8.091569502420752 6.33486220120634 3.207930747908167
O 3.545601732253739 12.259718078098809 -2.270618885630277
H 3.2250873849877495 11.652372139002843 -2.9542626674057693
H 4.412921868006224 11.902223483925525 -2.027894058809514
O 7.621482716830607 -7.455541250361945 -2.7164100527640116
H 8.312479227820461 -8.119562893114256 -2.5730000229321623
H 7.727855983184935 -7.204084838157825 -3.6461499869749403
O 0.7171938007303318 -11.06282429737642 -5.588203776152188
H 0.06084082396375834 -11.739367695193692 -5.81283048351246
H 0.18820534463289196 -10.265943502890245 -5.432916439273957
O 1.2268064622810593 0.8497677220333069 -11.819193181022715
H 1.1498314937150154 0.6189646802702731 -12.757154889743914
H 1.9346750308575302 1.5111636554394416 -11.798230042056302
O 6.097748021211883 -6.381111119369923 0.276017985871305
H 6.009549568124984 -5.952103957095907 1.140391310593138
H 5.356900140113303 -7.005054247838674 0.24771014581998935
C 8.340357005937824 -5.584639410984068 4.885000515709826
O 7.274125317689171 -5.228777093941995 5.2964980923538105
O 9.406588694186478 -5.940501728026141 4.473502939065841