146

C -5.3564454929577465 1.0091607042253532 -0.0734429577464788
C -4.079135492957747 0.16955070422535368 -0.19788295774647868
C -4.333545492957747 -1.2789292957746463 0.3017270422535212
C -3.1403854929577464 -2.1745492957746464 0.7330270422535212
C -2.905235492957746 0.902300704225353 0.41966704225352136
C -2.7423854929577463 1.056130704225354 1.8024770422535212
C -1.8861754929577463 1.3499307042253532 -0.4326129577464788
C -1.5304554929577463 1.5279207042253526 2.3254170422535214
H -3.5237954929577464 0.7301007042253529 2.484817042253521
C -0.6776454929577462 1.8010507042253527 0.08546704225352131
H -1.9759254929577463 1.2426607042253535 -1.5115229577464788
C -0.4680254929577463 1.8513207042253539 1.4698070422535212
H -1.3950654929577464 1.5446707042253527 3.404047042253521
H 0.1461845070422536 1.9972507042253538 -0.6030529577464789
C -1.8679654929577463 -2.0866092957746467 -0.08765295774647863
C -0.6628654929577462 -1.814079295774647 0.5787970422535212
C -1.8438954929577462 -2.213429295774647 -1.4808029577464787
C 0.5129345070422537 -1.5763292957746469 -0.13022295774647863
H -0.6401854929577462 -1.7032692957746463 1.6609470422535213
C -0.6547954929577462 -1.9962392957746466 -2.1933129577464787
H -2.7578654929577464 -2.4351492957746466 -2.026182957746479
C 0.5308845070422537 -1.645769295774647 -1.5261029577464789
H 1.4044045070422537 -1.2610992957746463 0.41551704225352126
H -0.6795654929577464 -2.0467992957746466 -3.2793129577464786
C 1.7843245070422535 -1.2521692957746469 -2.2771629577464787
H 1.4981245070422535 -0.9384492957746469 -3.290282957746479
H 2.241984507042254 -0.38631929577464685 -1.8135029577464787
C 0.9385645070422537 2.0647807042253534 1.9815670422535212
H 1.0508945070422537 1.5807407042253532 2.9609770422535213
H 1.6053245070422537 1.5496207042253536 1.3096170422535214
C 3.9676945070422533 -1.6881692957746468 -3.314052957746479
H 4.795084507042254 -2.398849295774647 -3.4044129577464783
H 3.548404507042253 -1.4816192957746468 -4.303802957746479
H 4.307714507042253 -0.7637192957746466 -2.851282957746479
C 2.344694507042253 -3.565079295774647 -3.101282957746479
H 1.6334345070422536 -4.047909295774646 -2.4251929577464786
H 1.8561845070422536 -3.293109295774647 -4.041792957746479
H 3.1808045070422537 -4.243519295774647 -3.298122957746479
C 3.5156645070422536 -2.648489295774647 -1.1110629577464786
H 3.9311845070422535 -1.748249295774647 -0.6771029577464787
H 2.767184507042254 -3.1044092957746465 -0.45972295774647876
H 4.319224507042254 -3.371819295774647 -1.2863129577464787
C 2.963994507042253 3.381090704225353 2.401027042253521
H 3.3337945070422537 4.369820704225353 2.6912870422535216
H 3.120994507042253 2.671350704225353 3.2183370422535216
H 3.4665445070422534 3.0664207042253535 1.4881370422535212
C 1.2973745070422538 4.282440704225354 0.8488370422535213
H 1.7592145070422538 3.7367207042253527 0.02653704225352116
H 0.23311450704225378 4.4484607042253534 0.6605570422535213
H 1.7921845070422535 5.251370704225354 0.9736770422535213
C 0.7724845070422537 4.194670704225353 3.2772470422535216
H -0.2956954929577462 4.278220704225354 3.057857042253521
H 0.9298945070422537 3.612620704225354 4.190337042253521
H 1.2046345070422537 5.193640704225353 3.3918370422535213
N 2.876084507042253 -2.324759295774647 -2.4576629577464786
N 1.4527845070422536 3.504690704225353 2.1388470422535213
C -3.593905492957746 -3.637819295774647 0.8297870422535213
H -2.8952554929577463 -1.8680692957746468 1.7595270422535212
H -5.022615492957747 -1.2402792957746467 1.1579970422535213
H -4.898275492957747 -1.7933092957746464 -0.48931295774647876
H -3.883675492957746 0.07871070422535364 -1.2758929577464788
H -3.8751654929577466 -4.038529295774646 -0.1505529577464788
H -4.4603554929577465 -3.7321892957746465 1.4932570422535212
H -2.7953554929577464 -4.271929295774647 1.2313670422535212
H -5.648775492957746 1.147700704225353 0.9733970422535213
H -6.189795492957747 0.5254307042253537 -0.5943629577464788
H -5.2178854929577465 2.002970704225354 -0.5139729577464787
C 3.6710445070422537 1.0263707042253536 -0.27764295774647874
O 2.7356545070422538 1.6631507042253526 -0.7327029577464788
O 3.650814507042253 0.3883007042253537 0.7790570422535212
O 4.756604507042254 0.8696707042253538 -0.8334829577464786
O -7.230278299273022 -4.503200715250837 -0.3206102387374994
H -7.0545074242678485 -5.445488219975686 -0.17860244022159133
H -7.358599218913735 -4.430778580792772 -1.278342309999132
O -0.6155668132750216 6.044834858749634 4.912974451699354
H -0.3231722695710251 6.869412220569002 5.3295617319746205
H -1.575922255845478 6.148937545385001 4.836541481976849
O -10.880809222968896 -0.05050535762503916 -11.157576994279335
H -10.850878610469149 -0.05215547860868863 -12.126116509444374
H -10.65651795065883 -0.9614250911650828 -10.914923726193237
O 12.526501686010011 0.40328521564959985 5.591519751554121
H 11.793889602097535 0.5538517564970267 6.207617640028559
H 12.972707070661489 1.2621293340534727 5.544091075722921
O 8.718315095483936 0.887420669173264 -3.999844173734881
H 9.411722779121623 0.9328119989358239 -4.675190579925514
H 8.982482796088531 1.5539431373405224 -3.347981327972442
O 4.034242053233712 7.765143483381494 -5.307871080294226
H 4.025386409886114 7.782024459887137 -4.339055325306149
H 3.10514041173525 7.890887027860355 -5.552658018439944
O 6.054213151270459 0.7370926636889409 6.471307211198591
H 6.173422287580476 0.731002121438352 7.432930549109707
H 6.7580864084704135 1.3214741956011697 6.151897431669782
O -0.14175508761813754 4.056113975650407 -9.358478591384882
H -0.23324203057768067 4.27392739090288 -10.298241759584176
H -0.6085547295279702 4.774203474079985 -8.905259537440756
O 4.689815681086719 -7.060104096914587 7.575703281273295
H 5.240108810716445 -7.4041575356131055 8.295267079488609
H 5.205024310416227 -6.320431836286627 7.220165717263624
O 9.936351814261107 8.202443103225658 -0.3828915940340587
H 10.574930977318235 8.274501861238527 -1.1081443394979407
H 9.256305288872484 7.604801846513489 -0.7283240706229837
O 2.9649846433257405 -1.8760173896864112 4.170750098214415
H 3.187670901896109 -2.049364018170685 5.097750170240877
H 3.0709428127933576 -2.737308271211705 3.7395739995906
O 10.14280311396627 -3.047079681332871 0.1853135860452233
H 9.983996939838981 -2.7031189913734015 -0.7065602838050262
H 10.22323613705024 -4.004068127620856 0.056218323665525816
O -5.439208042465506 -6.186205527487934 -9.51116125743487
H -5.072393179920626 -6.356133042331632 -10.391808095398435
H -5.382875363248151 -5.223544907165299 -9.415908416888078
O -6.620598769756062 -5.021579730168933 -6.290668720262924
H -6.21166957148667 -4.143961038074933 -6.329780086768955
H -5.975929286621282 -5.599772745154386 -6.725474469117246
O -5.652965782676132 -9.859525811736653 -6.717721713988388
H -5.537947782501615 -9.770878299649139 -7.675782168832731
H -6.56656803974223 -9.575312650431835 -6.564373290048482
O 7.256679392265032 -1.6528911866555676 -7.891518467083388
H 7.392044553369435 -1.9804524476832164 -6.989660800745092
H 8.101466168936913 -1.2359535306102143 -8.118366956678848
O 8.63475604072029 -3.5366513448557058 -8.59336495586813
H 9.595990123842483 -3.5435329653547987 -8.715631213042975
H 8.446603290761104 -2.643562789317335 -8.267860241694615
O -2.0942633119019862 -11.886872393561035 2.456002138429354
H -2.434746609522633 -12.141623071123725 1.5852894572177383
H -1.1917408700603795 -11.584137433587255 2.2749863096133742
O -0.633906456388702 -10.380468574831523 5.31345083810711
H 0.26026736769576253 -10.040115858439895 5.467010460622294
H -1.2121307256966989 -9.66323351596371 5.613771515074443
O -9.0392290812866 -3.8742513733204786 -9.776367689176572
H -9.846850537774326 -3.3398691355625516 -9.810287652169974
H -8.350248567915903 -3.2783797150088514 -10.106829129160737
O 4.287850084115302 0.23796148383774351 -14.60249171909168
H 4.196030429887459 0.7874624186801649 -15.395325390554227
H 4.6419582689056575 0.8458433766467852 -13.936121745158747
O -1.5567845085008196 5.623458077818809 10.990406443364165
H -1.8799774761051296 6.235995140047347 11.668132058925178
H -2.194161934771281 5.717680058560359 10.266642546001234
O 6.1102058037187 -4.107355340827029 -5.18086250631443
H 6.54091808719721 -3.7986884360882733 -5.9921448416821645
H 5.164058386031037 -4.014097893833031 -5.368132516949148
O 7.787595023858771 5.168910103377433 -8.470513428086793
H 8.532044154130695 5.757092121488961 -8.273524182421886
H 7.997658741232312 4.810649563286716 -9.346004469935375
C 2.663000056865324 -8.257279410879685 4.416776493352138
O 3.7966175266560453 -8.44571552565854 4.751771299479536
O 1.5293825870746027 -8.068843296100829 4.0817816872247406