146

C -5.3564454929577465 1.0091607042253532 -0.0734429577464788
C -4.079135492957747 0.16955070422535368 -0.19788295774647868
C -4.333545492957747 -1.2789292957746463 0.3017270422535212
C -3.1403854929577464 -2.1745492957746464 0.7330270422535212
C -2.905235492957746 0.902300704225353 0.41966704225352136
C -2.7423854929577463 1.056130704225354 1.8024770422535212
C -1.8861754929577463 1.3499307042253532 -0.4326129577464788
C -1.5304554929577463 1.5279207042253526 2.3254170422535214
H -3.5237954929577464 0.7301007042253529 2.484817042253521
C -0.6776454929577462 1.8010507042253527 0.08546704225352131
H -1.9759254929577463 1.2426607042253535 -1.5115229577464788
C -0.4680254929577463 1.8513207042253539 1.4698070422535212
H -1.3950654929577464 1.5446707042253527 3.404047042253521
H 0.1461845070422536 1.9972507042253538 -0.6030529577464789
C -1.8679654929577463 -2.0866092957746467 -0.08765295774647863
C -0.6628654929577462 -1.814079295774647 0.5787970422535212
C -1.8438954929577462 -2.213429295774647 -1.4808029577464787
C 0.5129345070422537 -1.5763292957746469 -0.13022295774647863
H -0.6401854929577462 -1.7032692957746463 1.6609470422535213
C -0.6547954929577462 -1.9962392957746466 -2.1933129577464787
H -2.7578654929577464 -2.4351492957746466 -2.026182957746479
C 0.5308845070422537 -1.645769295774647 -1.5261029577464789
H 1.4044045070422537 -1.2610992957746463 0.41551704225352126
H -0.6795654929577464 -2.0467992957746466 -3.2793129577464786
C 1.7843245070422535 -1.2521692957746469 -2.2771629577464787
H 1.4981245070422535 -0.9384492957746469 -3.290282957746479
H 2.241984507042254 -0.38631929577464685 -1.8135029577464787
C 0.9385645070422537 2.0647807042253534 1.9815670422535212
H 1.0508945070422537 1.5807407042253532 2.9609770422535213
H 1.6053245070422537 1.5496207042253536 1.3096170422535214
C 3.9676945070422533 -1.6881692957746468 -3.314052957746479
H 4.795084507042254 -2.398849295774647 -3.4044129577464783
H 3.548404507042253 -1.4816192957746468 -4.303802957746479
H 4.307714507042253 -0.7637192957746466 -2.851282957746479
C 2.344694507042253 -3.565079295774647 -3.101282957746479
H 1.6334345070422536 -4.047909295774646 -2.4251929577464786
H 1.8561845070422536 -3.293109295774647 -4.041792957746479
H 3.1808045070422537 -4.243519295774647 -3.298122957746479
C 3.5156645070422536 -2.648489295774647 -1.1110629577464786
H 3.9311845070422535 -1.748249295774647 -0.6771029577464787
H 2.767184507042254 -3.1044092957746465 -0.45972295774647876
H 4.319224507042254 -3.371819295774647 -1.2863129577464787
C 2.963994507042253 3.381090704225353 2.401027042253521
H 3.3337945070422537 4.369820704225353 2.6912870422535216
H 3.120994507042253 2.671350704225353 3.2183370422535216
H 3.4665445070422534 3.0664207042253535 1.4881370422535212
C 1.2973745070422538 4.282440704225354 0.8488370422535213
H 1.7592145070422538 3.7367207042253527 0.02653704225352116
H 0.23311450704225378 4.4484607042253534 0.6605570422535213
H 1.7921845070422535 5.251370704225354 0.9736770422535213
C 0.7724845070422537 4.194670704225353 3.2772470422535216
H -0.2956954929577462 4.278220704225354 3.057857042253521
H 0.9298945070422537 3.612620704225354 4.190337042253521
H 1.2046345070422537 5.193640704225353 3.3918370422535213
N 2.876084507042253 -2.324759295774647 -2.4576629577464786
N 1.4527845070422536 3.504690704225353 2.1388470422535213
C -3.593905492957746 -3.637819295774647 0.8297870422535213
H -2.8952554929577463 -1.8680692957746468 1.7595270422535212
H -5.022615492957747 -1.2402792957746467 1.1579970422535213
H -4.898275492957747 -1.7933092957746464 -0.48931295774647876
H -3.883675492957746 0.07871070422535364 -1.2758929577464788
H -3.8751654929577466 -4.038529295774646 -0.1505529577464788
H -4.4603554929577465 -3.7321892957746465 1.4932570422535212
H -2.7953554929577464 -4.271929295774647 1.2313670422535212
H -5.648775492957746 1.147700704225353 0.9733970422535213
H -6.189795492957747 0.5254307042253537 -0.5943629577464788
H -5.2178854929577465 2.002970704225354 -0.5139729577464787
C 3.6710445070422537 1.0263707042253536 -0.27764295774647874
O 2.7356545070422538 1.6631507042253526 -0.7327029577464788
O 3.650814507042253 0.3883007042253537 0.7790570422535212
O 4.756604507042254 0.8696707042253538 -0.8334829577464786
O 4.1850102880579465 -6.135682112134614 10.644806138418888
H 4.040309932189542 -5.915941548301133 11.577406400330553
H 5.148286649128556 -6.20752462820456 10.567999567168087
O -6.355785307663557 1.826073606106219 -9.022580326039428
H -5.896361138436969 1.647667780989527 -9.856887314620305
H -7.287624496406893 1.8963590425774974 -9.278895811412832
O -10.044514885583014 -6.959038572842269 -4.203318838012917
H -10.085163163769563 -6.227846738946931 -3.568753178348577
H -10.922900033812413 -7.364647724048146 -4.14962812998939
O -5.205998717475355 10.057248827592115 7.009998433341648
H -6.091597127454874 10.201373359628839 7.375936860412299
H -4.757443681456917 9.52604303356549 7.684965638733909
O -4.568706369283813 -1.4773582252137338 -3.9782890973890903
H -4.550112106875535 -1.4369491614392533 -3.01030732180116
H -4.6139003878945335 -0.5484776135723308 -4.250502716259467
O 2.229374044824436 -8.069835632497643 -11.416151099950387
H 2.1767092259060123 -7.910079570374925 -12.370442341848443
H 1.3042329479407035 -8.072880282620236 -11.12793828749682
O -4.934661841606366 -2.5466094431337387 -9.120907262936296
H -5.152364061606885 -1.6168161113574269 -9.285398783967477
H -5.79492341380665 -2.9925906723267026 -9.124473059204735
O -1.8121798756612695 -9.71589177677653 -2.274579879768759
H -2.5589647809457006 -9.599262545981492 -1.6682158928240516
H -1.041086586200542 -9.763940658064026 -1.6897137512780969
O 4.1415761104695985 7.6971469749074295 -2.27490955455695
H 4.484546747790495 7.703074435558314 -3.1811674450307006
H 4.351893008314103 6.808482896332372 -1.9508649554175614
O 1.2018678630904962 -8.133489639851405 1.1983918910821751
H 1.0360390288961925 -7.18899326466087 1.337656933004768
H 1.0707915185794898 -8.525838950803111 2.074658377035707
O -5.248976257189184 3.641077968383086 -7.737905929842299
H -5.609378748571231 3.3801843762330397 -8.598726430690565
H -5.803212663452816 3.1681545181135937 -7.099057465449394
O -4.945911914985601 -0.5681851213650981 11.775947092751125
H -4.727164214528255 -0.4374026313735442 12.710833578243472
H -5.315190152614558 -1.4635275128505905 11.745003118819335
O -2.617704636717133 -0.5668210127081155 6.216852377022244
H -2.1282070255382135 -1.3695560682282815 6.45132172723495
H -2.7071406253587624 -0.6202137103675636 5.253466489606231
O -3.8182475638171947 1.69329776793818 14.83500161033066
H -3.187185409633365 2.0803824798853263 15.460216245662929
H -4.118903525128596 2.448805596383867 14.307957154534758
O -9.755838385050717 3.631345609882474 -5.445082564384445
H -10.719915111972163 3.728813460483549 -5.449924011238382
H -9.428414755331685 4.538213644281174 -5.541757686248612
O 4.15113004090457 -3.4670379901382855 1.0667296455896509
H 4.941180413418089 -3.396684441077573 1.6233607118497115
H 3.6773712503668157 -2.6370417564367177 1.2267946471653135
O -2.0444155136846165 -4.8274709809716825 4.661574754978557
H -2.1754689572159824 -5.1680646937886054 3.763917651944132
H -2.14044645642948 -3.868162986065344 4.564270216316113
O -4.914088875493828 -8.04268164134342 3.6701845484247944
H -5.0476736932028805 -8.782811684368983 3.0591772057613706
H -4.46438089432832 -7.373585303221082 3.1325650116821984
O -6.0050278449052925 4.311586999978657 -4.957977610610548
H -5.26593241866238 3.8540327023549206 -5.3861707592395955
H -5.729981243336917 4.3847363645375435 -4.03171604834516
O -4.018244819267765 8.956742628686127 -1.7739330257331318
H -4.433128791084347 8.392025962498314 -1.1046545084031494
H -4.763529196277328 9.423371166998011 -2.181082812566407
O 1.5011780467079012 -10.853844323738269 3.076485952581643
H 0.7338414263610686 -11.435155144436125 2.9658532371929054
H 2.00062696591443 -10.966390322486125 2.2537793708835996
O 4.23162335505384 -6.864966405880892 5.8343402492826115
H 4.639809980039712 -7.543644748161429 6.392683104347478
H 3.9414186027148386 -6.187637587525421 6.463600781848447
O 0.1898795438854899 11.469225661783554 -6.814235799030317
H 0.746646824167934 11.030104152339625 -7.474652222547007
H -0.09268951559728755 12.286114822536426 -7.252195580251705
O 0.06263410630361044 -2.098900753998225 12.063489534283457
H 0.0872865995571187 -2.0201717225513445 13.028974568390058
H -0.5983196278145998 -1.4443479498394982 11.792080742563034
C 8.471517205837625 -5.290545716726909 -7.445405529543501
O 8.368931219206456 -5.408120819979827 -8.632195514225701
O 8.574103192468794 -5.172970613473989 -6.258615544861302