146

C -5.3564454929577465 1.0091607042253532 -0.0734429577464788
C -4.079135492957747 0.16955070422535368 -0.19788295774647868
C -4.333545492957747 -1.2789292957746463 0.3017270422535212
C -3.1403854929577464 -2.1745492957746464 0.7330270422535212
C -2.905235492957746 0.902300704225353 0.41966704225352136
C -2.7423854929577463 1.056130704225354 1.8024770422535212
C -1.8861754929577463 1.3499307042253532 -0.4326129577464788
C -1.5304554929577463 1.5279207042253526 2.3254170422535214
H -3.5237954929577464 0.7301007042253529 2.484817042253521
C -0.6776454929577462 1.8010507042253527 0.08546704225352131
H -1.9759254929577463 1.2426607042253535 -1.5115229577464788
C -0.4680254929577463 1.8513207042253539 1.4698070422535212
H -1.3950654929577464 1.5446707042253527 3.404047042253521
H 0.1461845070422536 1.9972507042253538 -0.6030529577464789
C -1.8679654929577463 -2.0866092957746467 -0.08765295774647863
C -0.6628654929577462 -1.814079295774647 0.5787970422535212
C -1.8438954929577462 -2.213429295774647 -1.4808029577464787
C 0.5129345070422537 -1.5763292957746469 -0.13022295774647863
H -0.6401854929577462 -1.7032692957746463 1.6609470422535213
C -0.6547954929577462 -1.9962392957746466 -2.1933129577464787
H -2.7578654929577464 -2.4351492957746466 -2.026182957746479
C 0.5308845070422537 -1.645769295774647 -1.5261029577464789
H 1.4044045070422537 -1.2610992957746463 0.41551704225352126
H -0.6795654929577464 -2.0467992957746466 -3.2793129577464786
C 1.7843245070422535 -1.2521692957746469 -2.2771629577464787
H 1.4981245070422535 -0.9384492957746469 -3.290282957746479
H 2.241984507042254 -0.38631929577464685 -1.8135029577464787
C 0.9385645070422537 2.0647807042253534 1.9815670422535212
H 1.0508945070422537 1.5807407042253532 2.9609770422535213
H 1.6053245070422537 1.5496207042253536 1.3096170422535214
C 3.9676945070422533 -1.6881692957746468 -3.314052957746479
H 4.795084507042254 -2.398849295774647 -3.4044129577464783
H 3.548404507042253 -1.4816192957746468 -4.303802957746479
H 4.307714507042253 -0.7637192957746466 -2.851282957746479
C 2.344694507042253 -3.565079295774647 -3.101282957746479
H 1.6334345070422536 -4.047909295774646 -2.4251929577464786
H 1.8561845070422536 -3.293109295774647 -4.041792957746479
H 3.1808045070422537 -4.243519295774647 -3.298122957746479
C 3.5156645070422536 -2.648489295774647 -1.1110629577464786
H 3.9311845070422535 -1.748249295774647 -0.6771029577464787
H 2.767184507042254 -3.1044092957746465 -0.45972295774647876
H 4.319224507042254 -3.371819295774647 -1.2863129577464787
C 2.963994507042253 3.381090704225353 2.401027042253521
H 3.3337945070422537 4.369820704225353 2.6912870422535216
H 3.120994507042253 2.671350704225353 3.2183370422535216
H 3.4665445070422534 3.0664207042253535 1.4881370422535212
C 1.2973745070422538 4.282440704225354 0.8488370422535213
H 1.7592145070422538 3.7367207042253527 0.02653704225352116
H 0.23311450704225378 4.4484607042253534 0.6605570422535213
H 1.7921845070422535 5.251370704225354 0.9736770422535213
C 0.7724845070422537 4.194670704225353 3.2772470422535216
H -0.2956954929577462 4.278220704225354 3.057857042253521
H 0.9298945070422537 3.612620704225354 4.190337042253521
H 1.2046345070422537 5.193640704225353 3.3918370422535213
N 2.876084507042253 -2.324759295774647 -2.4576629577464786
N 1.4527845070422536 3.504690704225353 2.1388470422535213
C -3.593905492957746 -3.637819295774647 0.8297870422535213
H -2.8952554929577463 -1.8680692957746468 1.7595270422535212
H -5.022615492957747 -1.2402792957746467 1.1579970422535213
H -4.898275492957747 -1.7933092957746464 -0.48931295774647876
H -3.883675492957746 0.07871070422535364 -1.2758929577464788
H -3.8751654929577466 -4.038529295774646 -0.1505529577464788
H -4.4603554929577465 -3.7321892957746465 1.4932570422535212
H -2.7953554929577464 -4.271929295774647 1.2313670422535212
H -5.648775492957746 1.147700704225353 0.9733970422535213
H -6.189795492957747 0.5254307042253537 -0.5943629577464788
H -5.2178854929577465 2.002970704225354 -0.5139729577464787
C 3.6710445070422537 1.0263707042253536 -0.27764295774647874
O 2.7356545070422538 1.6631507042253526 -0.7327029577464788
O 3.650814507042253 0.3883007042253537 0.7790570422535212
O 4.756604507042254 0.8696707042253538 -0.8334829577464786
O -0.07675806834052246 12.163429939792152 -2.0694600423120453
H 0.07035084666157765 12.140740925418951 -1.1119572837501295
H 0.6971303594728582 11.709860971059236 -2.435975848518396
O -6.212439948549519 4.175706324160592 -5.930053133162424
H -6.387306299617327 4.23638765142389 -6.881213946424722
H -6.530124165429608 5.021270928253564 -5.579255209921166
O -4.180224199683131 -0.39968515285858525 -11.891200838689196
H -4.776686675607531 -0.9136820702258306 -12.456007921374166
H -3.5913130054676428 -1.0655887967299549 -11.505561257335676
O -13.541440780064942 -4.7731551672035994 -1.405558700491869
H -14.21849997012618 -5.140999438258173 -0.8179799378515282
H -13.924472268569662 -4.865652464109152 -2.290823109117351
O 3.4406510766414753 -0.9283346090779754 -9.08682296824007
H 3.028230240211576 -0.05675430947335691 -9.182865625010834
H 3.902484725518374 -0.8763262425353383 -8.236548450878402
O 7.377886290125975 -3.9938894261375584 9.151180851015207
H 8.220116997721092 -4.472818300884484 9.16673478998488
H 7.321729652777468 -3.6484271913212805 8.247596753823666
O 2.4274827561365315 4.380068377169125 -15.035860547062796
H 1.8020421028396436 4.546239195096728 -15.75709463206768
H 1.8606054516474 4.2284704443744445 -14.264737902649136
O -13.915624617256992 -2.2574461374280106 -2.1042245596506293
H -13.320543408523443 -3.02002832659632 -2.161792924882654
H -13.32901591671763 -1.4940006594047976 -2.2137835795322864
O -5.188668283974139 13.233413277364932 4.175546802885082
H -4.819279635319017 13.940101798545903 3.624991885392018
H -4.617956135484347 12.471899078084439 3.992938719382849
O 7.08809888076526 7.676270123453863 -6.062607857369632
H 7.243061100589134 7.886137828963702 -6.9958332393172595
H 7.000007209218315 6.711349580419503 -6.051199643910049
O -2.63124195852221 7.206205186567362 5.299737600595234
H -2.6314534850654963 7.39481057625506 4.349266496806552
H -3.4885891582919095 7.539294510251422 5.60464615376282
O -0.32071394644457474 -9.5733867389694 5.2776432271123666
H -0.29668838608425396 -9.587046142377192 4.309034147014561
H 0.6032089297168506 -9.431008584745001 5.5327058163042215
O -0.009750860713217069 1.4791865963536277 -4.285421424269373
H -0.5420797678034404 0.6695565421027825 -4.2758054568243935
H 0.3808656572271747 1.513013852479422 -3.399285770458331
O -5.141765811753562 11.52054098259193 -3.6346308952089856
H -5.177791483696453 12.233059954540547 -4.290364242290211
H -6.054616158776595 11.198811720367045 -3.5881930866026592
O -0.4787536677022568 -4.756813170652811 1.097485333143752
H -0.772787708194987 -4.704252838895553 0.17566715613860745
H -1.152423389236482 -4.261006896885675 1.5866756738917545
O -7.621283465874699 2.226090099287745 5.105959759577658
H -7.879193399992358 3.1386826104332792 5.305019377241598
H -7.609241511303033 1.7920152839271175 5.972213758298432
O 8.046261468573162 5.527388725733147 -2.0595851000742744
H 8.664402658739496 5.91130128433403 -1.4196788778289582
H 8.448503728695448 4.677136507020213 -2.292467630645909
O 10.487674605994425 1.3227181033602786 -0.3948540757564549
H 10.585123734070168 1.8252086361928068 0.42793039708619784
H 11.373002095945772 0.9631987211328168 -0.5557981456665688
O 3.8870866020134853 -1.4735244799213771 7.541450464375666
H 3.0933230453988925 -2.025986676314849 7.4806862096970095
H 3.808800440869794 -1.045756515148069 8.407387984978097
O -0.5976754232097461 -9.869105863035008 -3.23629601189095
H -0.15373290596870026 -9.4476704790182 -2.485113866613062
H 0.06344034106924568 -9.841879148542903 -3.9442130949873895
O 11.174139367571911 3.0619056413201147 -10.72711115232288
H 11.28412248003628 3.232226694313778 -9.77955544906329
H 10.21850954470601 2.942336766244659 -10.834054455350579
O -12.708840112976677 -4.204754803837167 4.846846628788561
H -13.485823928595249 -4.77582557497855 4.751234487745724
H -13.082878128350572 -3.327082998128784 5.01640401972079
O -8.824195102329647 -6.319394935035175 -8.086562009393298
H -9.219423484955009 -7.1188252059305 -7.707519631230158
H -9.089247764971974 -5.615164786956637 -7.476013953247435
O 4.330934444916884 -0.6187814372912093 3.669466354809126
H 3.456679797463029 -0.9719214217470284 3.892935188617961
H 4.916659035779913 -1.0028594753465945 4.339072738173161
C -4.947654132063171 -7.5554215941346365 5.354528346168248
O -4.615066762989646 -8.661215615364984 5.039213453015438
O -5.280241501136696 -6.449627572904289 5.669843239321059