146

C -5.3564454929577465 1.0091607042253532 -0.0734429577464788
C -4.079135492957747 0.16955070422535368 -0.19788295774647868
C -4.333545492957747 -1.2789292957746463 0.3017270422535212
C -3.1403854929577464 -2.1745492957746464 0.7330270422535212
C -2.905235492957746 0.902300704225353 0.41966704225352136
C -2.7423854929577463 1.056130704225354 1.8024770422535212
C -1.8861754929577463 1.3499307042253532 -0.4326129577464788
C -1.5304554929577463 1.5279207042253526 2.3254170422535214
H -3.5237954929577464 0.7301007042253529 2.484817042253521
C -0.6776454929577462 1.8010507042253527 0.08546704225352131
H -1.9759254929577463 1.2426607042253535 -1.5115229577464788
C -0.4680254929577463 1.8513207042253539 1.4698070422535212
H -1.3950654929577464 1.5446707042253527 3.404047042253521
H 0.1461845070422536 1.9972507042253538 -0.6030529577464789
C -1.8679654929577463 -2.0866092957746467 -0.08765295774647863
C -0.6628654929577462 -1.814079295774647 0.5787970422535212
C -1.8438954929577462 -2.213429295774647 -1.4808029577464787
C 0.5129345070422537 -1.5763292957746469 -0.13022295774647863
H -0.6401854929577462 -1.7032692957746463 1.6609470422535213
C -0.6547954929577462 -1.9962392957746466 -2.1933129577464787
H -2.7578654929577464 -2.4351492957746466 -2.026182957746479
C 0.5308845070422537 -1.645769295774647 -1.5261029577464789
H 1.4044045070422537 -1.2610992957746463 0.41551704225352126
H -0.6795654929577464 -2.0467992957746466 -3.2793129577464786
C 1.7843245070422535 -1.2521692957746469 -2.2771629577464787
H 1.4981245070422535 -0.9384492957746469 -3.290282957746479
H 2.241984507042254 -0.38631929577464685 -1.8135029577464787
C 0.9385645070422537 2.0647807042253534 1.9815670422535212
H 1.0508945070422537 1.5807407042253532 2.9609770422535213
H 1.6053245070422537 1.5496207042253536 1.3096170422535214
C 3.9676945070422533 -1.6881692957746468 -3.314052957746479
H 4.795084507042254 -2.398849295774647 -3.4044129577464783
H 3.548404507042253 -1.4816192957746468 -4.303802957746479
H 4.307714507042253 -0.7637192957746466 -2.851282957746479
C 2.344694507042253 -3.565079295774647 -3.101282957746479
H 1.6334345070422536 -4.047909295774646 -2.4251929577464786
H 1.8561845070422536 -3.293109295774647 -4.041792957746479
H 3.1808045070422537 -4.243519295774647 -3.298122957746479
C 3.5156645070422536 -2.648489295774647 -1.1110629577464786
H 3.9311845070422535 -1.748249295774647 -0.6771029577464787
H 2.767184507042254 -3.1044092957746465 -0.45972295774647876
H 4.319224507042254 -3.371819295774647 -1.2863129577464787
C 2.963994507042253 3.381090704225353 2.401027042253521
H 3.3337945070422537 4.369820704225353 2.6912870422535216
H 3.120994507042253 2.671350704225353 3.2183370422535216
H 3.4665445070422534 3.0664207042253535 1.4881370422535212
C 1.2973745070422538 4.282440704225354 0.8488370422535213
H 1.7592145070422538 3.7367207042253527 0.02653704225352116
H 0.23311450704225378 4.4484607042253534 0.6605570422535213
H 1.7921845070422535 5.251370704225354 0.9736770422535213
C 0.7724845070422537 4.194670704225353 3.2772470422535216
H -0.2956954929577462 4.278220704225354 3.057857042253521
H 0.9298945070422537 3.612620704225354 4.190337042253521
H 1.2046345070422537 5.193640704225353 3.3918370422535213
N 2.876084507042253 -2.324759295774647 -2.4576629577464786
N 1.4527845070422536 3.504690704225353 2.1388470422535213
C -3.593905492957746 -3.637819295774647 0.8297870422535213
H -2.8952554929577463 -1.8680692957746468 1.7595270422535212
H -5.022615492957747 -1.2402792957746467 1.1579970422535213
H -4.898275492957747 -1.7933092957746464 -0.48931295774647876
H -3.883675492957746 0.07871070422535364 -1.2758929577464788
H -3.8751654929577466 -4.038529295774646 -0.1505529577464788
H -4.4603554929577465 -3.7321892957746465 1.4932570422535212
H -2.7953554929577464 -4.271929295774647 1.2313670422535212
H -5.648775492957746 1.147700704225353 0.9733970422535213
H -6.189795492957747 0.5254307042253537 -0.5943629577464788
H -5.2178854929577465 2.002970704225354 -0.5139729577464787
C 3.6710445070422537 1.0263707042253536 -0.27764295774647874
O 2.7356545070422538 1.6631507042253526 -0.7327029577464788
O 3.650814507042253 0.3883007042253537 0.7790570422535212
O 4.756604507042254 0.8696707042253538 -0.8334829577464786
O 3.380622738578276 4.204811768902168 -5.763612453302272
H 2.4195316811073537 4.212357172402357 -5.640265775051727
H 3.5279691407622176 3.4991085553441685 -6.411095237967132
O 1.006852601475095 -6.110798000989167 12.66474786964901
H 1.601798059065798 -6.808549542874703 12.978036945725004
H 0.14207740957689552 -6.545200142436616 12.615548364739901
O 4.690283452906558 -1.4315884179076406 2.630943737331651
H 5.478833758266506 -1.9726068411072015 2.7873241663353925
H 4.479246454192257 -1.067652404631839 3.5038560512066326
O -1.9607076152818355 12.057649303434141 0.1082219406417484
H -1.9226665674426053 12.003431726489868 1.074959076542499
H -1.965202362468152 11.131934817318985 -0.17812475786250204
O -7.786651285702954 10.107388653601866 7.455134427471471
H -7.600290490606081 9.262955661679314 7.892364267605455
H -8.708694110987325 10.02430984850756 7.168958109817974
O 5.642324586535381 -11.085537311711596 1.7381226208025016
H 6.5818575320276995 -11.277380812013705 1.5986906566538117
H 5.318350686854993 -11.851439175357969 2.23551300258415
O -2.7301466944123063 -11.513637746538745 -6.675731635087759
H -2.5140144511412563 -11.660348135836697 -7.608860925159971
H -3.1199540218350474 -10.62660045088854 -6.662426451394484
O -0.5926043539919457 10.181290209578947 1.82463483941198
H -1.5382733003378934 10.390123010061025 1.7919781056537016
H -0.5165801859178027 9.55444365015837 2.559648894455296
O -1.0173714568853525 2.0820142781784345 -8.690895532946197
H -1.5377708946777742 1.7277533540439416 -7.954247055260465
H -1.4493153044725569 1.7188077061918619 -9.478593090957725
O -4.011088810012024 -4.717939485205364 -2.2265358510517372
H -3.921220378199776 -5.677961117161923 -2.130361592338322
H -4.8901750282225205 -4.5278582170968145 -1.8659273697779162
O 6.545082563217324 -9.146617231519926 2.330514936472314
H 6.86056509324655 -9.441241569698676 1.4629697621447204
H 7.103144942007728 -8.381290822441098 2.5349747448584705
O -6.67899645715789 0.528351231499254 -3.682421196639413
H -6.713679557713524 0.1911508237296371 -2.7746435121616257
H -5.75949826410208 0.8141921425974303 -3.7909568627112833
O 3.1116043003407654 2.0769509895382234 -10.707396497657745
H 3.5667057798003388 1.8551199255344806 -11.533617399920981
H 2.2334519470118672 2.3687252024078655 -10.99493466442386
O -7.711071730624713 -9.62934056031268 -0.5300335781958356
H -8.190044044463162 -10.454456219829963 -0.3605135855825694
H -6.881811018813565 -9.91978576443096 -0.938604501722166
O -6.858026153745965 -6.326042773797553 -8.324955115274111
H -6.889072245409402 -6.399240270702432 -7.3592193214157255
H -7.475099102165579 -7.007468746958738 -8.631290819575876
O -0.7025092874906609 1.5629745422293915 6.638045665893795
H 0.21227816292686907 1.8042456520239074 6.847615532613987
H -0.9665801548213078 0.9872204635967083 7.3713503517270915
O -5.388102843685569 0.6926848676371113 7.239133717740879
H -4.942249901522828 0.847783021791011 8.085376634073349
H -5.46279429387996 -0.2720405376224351 7.18728756055773
O -11.458944771033373 10.106626757663097 2.7789867696461865
H -11.140309767638055 10.260204104563583 1.876848703699363
H -10.761990841928169 9.569746353312942 3.1851598810526816
O -11.413710475326678 1.0409074996980183 4.73286506018521
H -11.82190307991682 1.463973553332131 5.503164527094264
H -11.61403674509085 1.6437742467897853 4.0011663413170115
O 8.989519294218068 -3.1498671764094475 -8.32894416546828
H 9.199879600668535 -3.1543160433358852 -7.383060395677755
H 8.52523695232582 -3.9887187823228336 -8.469414214103503
O 6.655043239306058 -0.7660522182965176 -4.877665533276983
H 6.593140411397255 -0.7636228334846685 -3.9106445950929483
H 5.912753549717224 -1.3221090343136912 -5.158323293531278
O 6.358374033851584 4.61225634136057 -1.11050826785814
H 6.126782035450215 4.612691329212385 -2.0514292602703774
H 5.589137407285517 4.209550932428498 -0.6803160895632425
O 9.061658806777348 6.33291666243607 10.704660409986298
H 8.160928765542486 6.666194115005187 10.575901374085579
H 9.2714056645748 5.895241684061301 9.865965701973458
O 0.8244678420815452 -10.785420816367974 6.068153991023459
H 0.43074462682931713 -9.954557085523277 6.374119426061929
H 0.3199679778020945 -11.469044365957085 6.53409462424748
C -11.08531283996393 10.173027772771531 -5.660887871518895
O -11.469267252459893 9.069714179468313 -5.399935038123241
O -10.701358427467968 11.27634136607475 -5.921840704914549