146

C -5.3564454929577465 1.0091607042253532 -0.0734429577464788
C -4.079135492957747 0.16955070422535368 -0.19788295774647868
C -4.333545492957747 -1.2789292957746463 0.3017270422535212
C -3.1403854929577464 -2.1745492957746464 0.7330270422535212
C -2.905235492957746 0.902300704225353 0.41966704225352136
C -2.7423854929577463 1.056130704225354 1.8024770422535212
C -1.8861754929577463 1.3499307042253532 -0.4326129577464788
C -1.5304554929577463 1.5279207042253526 2.3254170422535214
H -3.5237954929577464 0.7301007042253529 2.484817042253521
C -0.6776454929577462 1.8010507042253527 0.08546704225352131
H -1.9759254929577463 1.2426607042253535 -1.5115229577464788
C -0.4680254929577463 1.8513207042253539 1.4698070422535212
H -1.3950654929577464 1.5446707042253527 3.404047042253521
H 0.1461845070422536 1.9972507042253538 -0.6030529577464789
C -1.8679654929577463 -2.0866092957746467 -0.08765295774647863
C -0.6628654929577462 -1.814079295774647 0.5787970422535212
C -1.8438954929577462 -2.213429295774647 -1.4808029577464787
C 0.5129345070422537 -1.5763292957746469 -0.13022295774647863
H -0.6401854929577462 -1.7032692957746463 1.6609470422535213
C -0.6547954929577462 -1.9962392957746466 -2.1933129577464787
H -2.7578654929577464 -2.4351492957746466 -2.026182957746479
C 0.5308845070422537 -1.645769295774647 -1.5261029577464789
H 1.4044045070422537 -1.2610992957746463 0.41551704225352126
H -0.6795654929577464 -2.0467992957746466 -3.2793129577464786
C 1.7843245070422535 -1.2521692957746469 -2.2771629577464787
H 1.4981245070422535 -0.9384492957746469 -3.290282957746479
H 2.241984507042254 -0.38631929577464685 -1.8135029577464787
C 0.9385645070422537 2.0647807042253534 1.9815670422535212
H 1.0508945070422537 1.5807407042253532 2.9609770422535213
H 1.6053245070422537 1.5496207042253536 1.3096170422535214
C 3.9676945070422533 -1.6881692957746468 -3.314052957746479
H 4.795084507042254 -2.398849295774647 -3.4044129577464783
H 3.548404507042253 -1.4816192957746468 -4.303802957746479
H 4.307714507042253 -0.7637192957746466 -2.851282957746479
C 2.344694507042253 -3.565079295774647 -3.101282957746479
H 1.6334345070422536 -4.047909295774646 -2.4251929577464786
H 1.8561845070422536 -3.293109295774647 -4.041792957746479
H 3.1808045070422537 -4.243519295774647 -3.298122957746479
C 3.5156645070422536 -2.648489295774647 -1.1110629577464786
H 3.9311845070422535 -1.748249295774647 -0.6771029577464787
H 2.767184507042254 -3.1044092957746465 -0.45972295774647876
H 4.319224507042254 -3.371819295774647 -1.2863129577464787
C 2.963994507042253 3.381090704225353 2.401027042253521
H 3.3337945070422537 4.369820704225353 2.6912870422535216
H 3.120994507042253 2.671350704225353 3.2183370422535216
H 3.4665445070422534 3.0664207042253535 1.4881370422535212
C 1.2973745070422538 4.282440704225354 0.8488370422535213
H 1.7592145070422538 3.7367207042253527 0.02653704225352116
H 0.23311450704225378 4.4484607042253534 0.6605570422535213
H 1.7921845070422535 5.251370704225354 0.9736770422535213
C 0.7724845070422537 4.194670704225353 3.2772470422535216
H -0.2956954929577462 4.278220704225354 3.057857042253521
H 0.9298945070422537 3.612620704225354 4.190337042253521
H 1.2046345070422537 5.193640704225353 3.3918370422535213
N 2.876084507042253 -2.324759295774647 -2.4576629577464786
N 1.4527845070422536 3.504690704225353 2.1388470422535213
C -3.593905492957746 -3.637819295774647 0.8297870422535213
H -2.8952554929577463 -1.8680692957746468 1.7595270422535212
H -5.022615492957747 -1.2402792957746467 1.1579970422535213
H -4.898275492957747 -1.7933092957746464 -0.48931295774647876
H -3.883675492957746 0.07871070422535364 -1.2758929577464788
H -3.8751654929577466 -4.038529295774646 -0.1505529577464788
H -4.4603554929577465 -3.7321892957746465 1.4932570422535212
H -2.7953554929577464 -4.271929295774647 1.2313670422535212
H -5.648775492957746 1.147700704225353 0.9733970422535213
H -6.189795492957747 0.5254307042253537 -0.5943629577464788
H -5.2178854929577465 2.002970704225354 -0.5139729577464787
C 3.6710445070422537 1.0263707042253536 -0.27764295774647874
O 2.7356545070422538 1.6631507042253526 -0.7327029577464788
O 3.650814507042253 0.3883007042253537 0.7790570422535212
O 4.756604507042254 0.8696707042253538 -0.8334829577464786
O 1.490248270104412 -3.8582976367220123 5.002747631760446
H 1.4200467867976847 -3.862455317976824 4.036299587462088
H 2.393398794171544 -3.5498462243582916 5.170493872815474
O 8.177514097809915 -9.037416567771585 -1.7582976850802825
H 8.976711620582702 -9.271791990567694 -1.2630009682700587
H 8.513471049601518 -8.564840425111237 -2.5346781718463793
O -2.073649846040072 8.878651938802816 -11.801464834073302
H -1.6323951235525522 8.8996352648367 -12.663915601833999
H -2.5799187260924117 8.052581055548988 -11.817609840446394
O -9.602598919302396 2.3672873334205353 4.825923380463033
H -9.729201893924852 1.6171357281837953 4.225747062305204
H -8.650778235926076 2.543691198353525 4.782552797878296
O 2.1181188462021057 11.881035186694854 8.588389969453942
H 2.555054552255021 12.745714382238212 8.607996970003049
H 2.8456525457512267 11.254017117188155 8.459918179428026
O -3.003182022814274 9.59997080448508 -3.8985388071332414
H -3.277858171786286 9.668648619313682 -4.825255445505659
H -3.6720202063187535 10.110311998518652 -3.417738126748099
O -1.0852730802188129 8.694102542736433 -5.384122445252174
H -1.0850476601977568 7.935398445749579 -5.98689553630815
H -0.4875808296118742 8.425945906091433 -4.670107084011497
O 0.36826660949822276 14.282571818131185 0.8052338807388446
H 0.7172613413707518 14.689684165402124 1.6123457507573513
H 1.1599091298687467 13.986877777879403 0.331072411615738
O 1.7237046961658384 -1.4116099802841644 -8.167169118904077
H 1.4743672159784875 -1.5857453284894714 -7.247128327210991
H 2.025292596623112 -2.272214795604859 -8.49483668587494
O 1.7341915815483993 -5.146138667133378 -9.944062408757627
H 2.535532941034272 -5.588998544527604 -9.62673842373332
H 1.8035843352230323 -4.249646679399901 -9.582885573997794
O -4.937773028824241 8.639443855181035 2.6090304324365072
H -5.024240442821361 9.519509115429438 2.2128286140149336
H -4.887321355083287 8.815100179169365 3.5606403466133423
O 7.153523516841425 4.383202648169792 1.43178621609164
H 7.259198716101878 4.095383602461534 0.5125689914440312
H 7.147623372497705 5.350517662892393 1.374963730322901
O -1.6399309610709683 4.285161753497066 -3.457211105868416
H -1.4902113070017138 4.1877537950690344 -2.5048125171880944
H -0.7642330842175868 4.5021296574163845 -3.8108212039189895
O -7.454864484111599 -0.7513061103427181 4.967943181523785
H -8.214560666582923 -1.0955265110835288 4.474646736216977
H -6.8990778731689755 -0.3432930542312045 4.287069820729389
O 5.589176314966103 -6.867546895451152 6.778352350676795
H 5.400447505626836 -7.033387033299974 7.714218709781377
H 4.716689054906356 -6.884221804893864 6.357104356345057
O 0.028227896160846422 -9.472109615748343 -5.675916583167345
H 0.29242783138732 -8.547470189479743 -5.795112566807747
H 0.31508441015053834 -9.683190556758959 -4.774739507879833
O -4.492128032433723 13.474115916911568 -4.646251935134412
H -4.701280629396718 14.014441588924296 -5.422956973258687
H -3.869551604777489 14.019578434464925 -4.142435323686204
O -3.7329372441601207 -5.910476747142273 -4.631018833289436
H -3.7343095026974105 -5.368160748447526 -5.434049860937949
H -3.258816255186633 -5.367992274143896 -3.9830359410226155
O -2.4353579837460155 -5.870903416854321 8.085372819853685
H -3.264712341895769 -6.359190254095853 7.9726134739231895
H -2.639107325837973 -5.21910294476333 8.772835032981837
O 5.941338423494264 3.545108460857102 7.915865716608195
H 5.736953637646771 2.7203432751656944 8.381651724003751
H 6.034352613274591 3.2742524915532787 6.990151209488427
O 8.28120638532045 -2.1772661276978456 -3.2562671568659063
H 7.895660419388222 -1.7598056152636512 -2.4713796581684386
H 9.01527946702114 -1.5919135718901818 -3.4959774829511385
O 8.710006155906958 -6.961617649279578 10.580153286372427
H 8.627138868079957 -7.26917940466649 11.495306899779225
H 7.83534161057737 -6.598421779653408 10.375183440468515
O -2.3860215619245846 4.624518971847555 -9.808995224994185
H -2.0233992250179242 5.372440433092775 -10.307077432551498
H -2.6026637750126422 5.002671909930915 -8.943530926927977
O 3.9828414401388055 5.874913945879129 -7.10597352814629
H 4.4970357568765245 5.208776267088373 -6.625523578172419
H 3.223803695460198 6.046027945433101 -6.528441151902451
C -3.963792135323932 5.726501108373755 -3.169406602611222
O -3.2605910940648926 5.967388029857813 -4.107649664898462
O -4.666993176582971 5.485614186889697 -2.231163540323983