146

C -5.3564454929577465 1.0091607042253532 -0.0734429577464788
C -4.079135492957747 0.16955070422535368 -0.19788295774647868
C -4.333545492957747 -1.2789292957746463 0.3017270422535212
C -3.1403854929577464 -2.1745492957746464 0.7330270422535212
C -2.905235492957746 0.902300704225353 0.41966704225352136
C -2.7423854929577463 1.056130704225354 1.8024770422535212
C -1.8861754929577463 1.3499307042253532 -0.4326129577464788
C -1.5304554929577463 1.5279207042253526 2.3254170422535214
H -3.5237954929577464 0.7301007042253529 2.484817042253521
C -0.6776454929577462 1.8010507042253527 0.08546704225352131
H -1.9759254929577463 1.2426607042253535 -1.5115229577464788
C -0.4680254929577463 1.8513207042253539 1.4698070422535212
H -1.3950654929577464 1.5446707042253527 3.404047042253521
H 0.1461845070422536 1.9972507042253538 -0.6030529577464789
C -1.8679654929577463 -2.0866092957746467 -0.08765295774647863
C -0.6628654929577462 -1.814079295774647 0.5787970422535212
C -1.8438954929577462 -2.213429295774647 -1.4808029577464787
C 0.5129345070422537 -1.5763292957746469 -0.13022295774647863
H -0.6401854929577462 -1.7032692957746463 1.6609470422535213
C -0.6547954929577462 -1.9962392957746466 -2.1933129577464787
H -2.7578654929577464 -2.4351492957746466 -2.026182957746479
C 0.5308845070422537 -1.645769295774647 -1.5261029577464789
H 1.4044045070422537 -1.2610992957746463 0.41551704225352126
H -0.6795654929577464 -2.0467992957746466 -3.2793129577464786
C 1.7843245070422535 -1.2521692957746469 -2.2771629577464787
H 1.4981245070422535 -0.9384492957746469 -3.290282957746479
H 2.241984507042254 -0.38631929577464685 -1.8135029577464787
C 0.9385645070422537 2.0647807042253534 1.9815670422535212
H 1.0508945070422537 1.5807407042253532 2.9609770422535213
H 1.6053245070422537 1.5496207042253536 1.3096170422535214
C 3.9676945070422533 -1.6881692957746468 -3.314052957746479
H 4.795084507042254 -2.398849295774647 -3.4044129577464783
H 3.548404507042253 -1.4816192957746468 -4.303802957746479
H 4.307714507042253 -0.7637192957746466 -2.851282957746479
C 2.344694507042253 -3.565079295774647 -3.101282957746479
H 1.6334345070422536 -4.047909295774646 -2.4251929577464786
H 1.8561845070422536 -3.293109295774647 -4.041792957746479
H 3.1808045070422537 -4.243519295774647 -3.298122957746479
C 3.5156645070422536 -2.648489295774647 -1.1110629577464786
H 3.9311845070422535 -1.748249295774647 -0.6771029577464787
H 2.767184507042254 -3.1044092957746465 -0.45972295774647876
H 4.319224507042254 -3.371819295774647 -1.2863129577464787
C 2.963994507042253 3.381090704225353 2.401027042253521
H 3.3337945070422537 4.369820704225353 2.6912870422535216
H 3.120994507042253 2.671350704225353 3.2183370422535216
H 3.4665445070422534 3.0664207042253535 1.4881370422535212
C 1.2973745070422538 4.282440704225354 0.8488370422535213
H 1.7592145070422538 3.7367207042253527 0.02653704225352116
H 0.23311450704225378 4.4484607042253534 0.6605570422535213
H 1.7921845070422535 5.251370704225354 0.9736770422535213
C 0.7724845070422537 4.194670704225353 3.2772470422535216
H -0.2956954929577462 4.278220704225354 3.057857042253521
H 0.9298945070422537 3.612620704225354 4.190337042253521
H 1.2046345070422537 5.193640704225353 3.3918370422535213
N 2.876084507042253 -2.324759295774647 -2.4576629577464786
N 1.4527845070422536 3.504690704225353 2.1388470422535213
C -3.593905492957746 -3.637819295774647 0.8297870422535213
H -2.8952554929577463 -1.8680692957746468 1.7595270422535212
H -5.022615492957747 -1.2402792957746467 1.1579970422535213
H -4.898275492957747 -1.7933092957746464 -0.48931295774647876
H -3.883675492957746 0.07871070422535364 -1.2758929577464788
H -3.8751654929577466 -4.038529295774646 -0.1505529577464788
H -4.4603554929577465 -3.7321892957746465 1.4932570422535212
H -2.7953554929577464 -4.271929295774647 1.2313670422535212
H -5.648775492957746 1.147700704225353 0.9733970422535213
H -6.189795492957747 0.5254307042253537 -0.5943629577464788
H -5.2178854929577465 2.002970704225354 -0.5139729577464787
C 3.6710445070422537 1.0263707042253536 -0.27764295774647874
O 2.7356545070422538 1.6631507042253526 -0.7327029577464788
O 3.650814507042253 0.3883007042253537 0.7790570422535212
O 4.756604507042254 0.8696707042253538 -0.8334829577464786
O -10.251272579651353 -1.8721139626207255 -8.710738206625313
H -10.572042133701594 -1.8848759575572265 -9.62502010056156
H -9.294161721754184 -1.9966383598699966 -8.796729046166794
O -7.713555880749237 11.879046041731627 2.735864246343361
H -7.807670292437395 12.83401380161905 2.601155627509262
H -7.46519012213801 11.797647093622237 3.6689508476275896
O -6.114773994910956 -8.319478962620451 -0.5909971023975166
H -5.690094430551942 -9.153792032256874 -0.34092446025190193
H -6.782581718597377 -8.582670361910537 -1.2419387862867
O -4.704546166401891 -6.027714227632188 8.14704630940085
H -4.642489203384365 -6.748632603789781 7.5025364296012125
H -3.786566171576917 -5.876131562717959 8.417781178042924
O 3.495584063924902 2.08051821530299 -4.247882649952242
H 4.159382515207466 1.829376514061142 -3.588135108181739
H 3.4591003974583305 1.3183047250268949 -4.845094071161086
O 1.715472929986173 -0.6051824388619307 6.425767081360822
H 2.61195106076784 -0.2806893071711968 6.252566257414312
H 1.7950725358350303 -1.0731306908403226 7.270545324759095
O -5.955039037473256 -3.8034351176423202 -2.9805992909566887
H -6.647572966167987 -3.9884470161473815 -3.6326228426158247
H -5.307158514561108 -4.510325751614993 -3.120307572503608
O -9.575712587143213 -0.43452703296623074 -10.861639235386898
H -9.603610672114574 -0.38253727099815205 -11.82884454885733
H -9.972286685698073 0.4004097182355215 -10.57082735435715
O -8.83979832939379 -5.99310489937536 6.58635383405227
H -9.126266855092613 -5.550112163698698 7.399164129768099
H -8.16018697265785 -5.4039832864409405 6.225762551199951
O -3.3916623630281735 -7.207972365998631 -6.233913216650481
H -3.5275216244600625 -7.969857096655294 -6.817043798231836
H -3.1142169731022604 -7.602876860292648 -5.393653470919886
O -4.456826073570409 6.211549191649576 9.341255599366583
H -4.918199765266356 5.681961562773135 8.673693904201349
H -4.974135543768578 6.0726153705367585 10.14875188399846
O 4.861159082305153 1.9255139656764713 -9.652920259291431
H 5.281732123246931 1.1934835890196673 -10.128543221084367
H 4.874475166980156 2.656324926059513 -10.289080590004488
O -1.2844761241288551 -4.749824687806514 -9.832111157938293
H -1.189756550257672 -5.701256360970218 -9.989506616978813
H -2.214297902410897 -4.570075359471875 -10.037253995726179
O 0.36187429112686065 -0.7520697612064211 14.440455481654595
H -0.05489874697976305 -0.19957152722912674 15.118698279669694
H -0.29281149420141084 -0.7801325770246832 13.726620104864224
O 2.8664906903985434 -9.870373629884142 -0.36645107100363417
H 2.3731317462298813 -10.621265926814413 -0.7293905529005005
H 3.7416362752928 -10.237719570655228 -0.17115870213301854
O 9.560457505739212 -4.880935534882098 -0.8066407117178679
H 9.352986016747378 -4.155470327475398 -0.1986742891270572
H 9.577949411750184 -4.458061024307362 -1.678324786271419
O 5.562443701910715 -4.9043326684072746 -0.45585366417388695
H 6.161956875009137 -5.616947468948904 -0.1880263723784542
H 4.765154081656133 -5.368312904604443 -0.7525244348148847
O -3.6880720147797272 10.24969597909021 -1.1662687502657527
H -4.431333712575703 10.825178954455772 -1.4015319019785601
H -3.163444678520734 10.784436743986197 -0.5516303063751602
O 7.866312062749196 3.1447183112184547 0.12200889797892822
H 7.163218643569095 3.390648141073193 0.7418036378672705
H 8.272469446478361 3.990857099198502 -0.11892112384885367
O -5.728824796410413 3.7598939487529157 0.744166842062959
H -4.839891404253775 4.088553085292808 0.9460280646336819
H -6.307157238743612 4.277969577420701 1.3239005511272115
O -1.2797195225771885 8.50079840187469 3.930352984420014
H -1.7990791974628464 7.777895479371329 4.313294559126605
H -1.8159816588098014 8.803477256176352 3.1821749463155333
O 7.380114941590153 -6.754367935862705 -8.337943747434174
H 7.161550245586367 -7.6968687941798315 -8.28419467644451
H 7.232837263158065 -6.428221080082414 -7.437444187078766
O 2.1267010831981503 -3.0515120480846396 4.786934945637017
H 2.0800247203438964 -3.080735658770842 5.754372103611199
H 1.3579807368692174 -2.5197510079878263 4.531472287553532
O 0.6977443714934228 -3.6091442968835348 2.5303547259381975
H 0.6134164020619728 -3.4377534029182892 3.4803448900648393
H 1.1230103268315585 -2.809804112810758 2.185150320321986
C 3.39659112479764 -10.483109022447737 -6.693644209919727
O 3.117397825806036 -10.869424343012565 -7.791655973151377
O 3.6757844237892443 -10.096793701882909 -5.595632446688074