146

C -5.3564454929577465 1.0091607042253532 -0.0734429577464788
C -4.079135492957747 0.16955070422535368 -0.19788295774647868
C -4.333545492957747 -1.2789292957746463 0.3017270422535212
C -3.1403854929577464 -2.1745492957746464 0.7330270422535212
C -2.905235492957746 0.902300704225353 0.41966704225352136
C -2.7423854929577463 1.056130704225354 1.8024770422535212
C -1.8861754929577463 1.3499307042253532 -0.4326129577464788
C -1.5304554929577463 1.5279207042253526 2.3254170422535214
H -3.5237954929577464 0.7301007042253529 2.484817042253521
C -0.6776454929577462 1.8010507042253527 0.08546704225352131
H -1.9759254929577463 1.2426607042253535 -1.5115229577464788
C -0.4680254929577463 1.8513207042253539 1.4698070422535212
H -1.3950654929577464 1.5446707042253527 3.404047042253521
H 0.1461845070422536 1.9972507042253538 -0.6030529577464789
C -1.8679654929577463 -2.0866092957746467 -0.08765295774647863
C -0.6628654929577462 -1.814079295774647 0.5787970422535212
C -1.8438954929577462 -2.213429295774647 -1.4808029577464787
C 0.5129345070422537 -1.5763292957746469 -0.13022295774647863
H -0.6401854929577462 -1.7032692957746463 1.6609470422535213
C -0.6547954929577462 -1.9962392957746466 -2.1933129577464787
H -2.7578654929577464 -2.4351492957746466 -2.026182957746479
C 0.5308845070422537 -1.645769295774647 -1.5261029577464789
H 1.4044045070422537 -1.2610992957746463 0.41551704225352126
H -0.6795654929577464 -2.0467992957746466 -3.2793129577464786
C 1.7843245070422535 -1.2521692957746469 -2.2771629577464787
H 1.4981245070422535 -0.9384492957746469 -3.290282957746479
H 2.241984507042254 -0.38631929577464685 -1.8135029577464787
C 0.9385645070422537 2.0647807042253534 1.9815670422535212
H 1.0508945070422537 1.5807407042253532 2.9609770422535213
H 1.6053245070422537 1.5496207042253536 1.3096170422535214
C 3.9676945070422533 -1.6881692957746468 -3.314052957746479
H 4.795084507042254 -2.398849295774647 -3.4044129577464783
H 3.548404507042253 -1.4816192957746468 -4.303802957746479
H 4.307714507042253 -0.7637192957746466 -2.851282957746479
C 2.344694507042253 -3.565079295774647 -3.101282957746479
H 1.6334345070422536 -4.047909295774646 -2.4251929577464786
H 1.8561845070422536 -3.293109295774647 -4.041792957746479
H 3.1808045070422537 -4.243519295774647 -3.298122957746479
C 3.5156645070422536 -2.648489295774647 -1.1110629577464786
H 3.9311845070422535 -1.748249295774647 -0.6771029577464787
H 2.767184507042254 -3.1044092957746465 -0.45972295774647876
H 4.319224507042254 -3.371819295774647 -1.2863129577464787
C 2.963994507042253 3.381090704225353 2.401027042253521
H 3.3337945070422537 4.369820704225353 2.6912870422535216
H 3.120994507042253 2.671350704225353 3.2183370422535216
H 3.4665445070422534 3.0664207042253535 1.4881370422535212
C 1.2973745070422538 4.282440704225354 0.8488370422535213
H 1.7592145070422538 3.7367207042253527 0.02653704225352116
H 0.23311450704225378 4.4484607042253534 0.6605570422535213
H 1.7921845070422535 5.251370704225354 0.9736770422535213
C 0.7724845070422537 4.194670704225353 3.2772470422535216
H -0.2956954929577462 4.278220704225354 3.057857042253521
H 0.9298945070422537 3.612620704225354 4.190337042253521
H 1.2046345070422537 5.193640704225353 3.3918370422535213
N 2.876084507042253 -2.324759295774647 -2.4576629577464786
N 1.4527845070422536 3.504690704225353 2.1388470422535213
C -3.593905492957746 -3.637819295774647 0.8297870422535213
H -2.8952554929577463 -1.8680692957746468 1.7595270422535212
H -5.022615492957747 -1.2402792957746467 1.1579970422535213
H -4.898275492957747 -1.7933092957746464 -0.48931295774647876
H -3.883675492957746 0.07871070422535364 -1.2758929577464788
H -3.8751654929577466 -4.038529295774646 -0.1505529577464788
H -4.4603554929577465 -3.7321892957746465 1.4932570422535212
H -2.7953554929577464 -4.271929295774647 1.2313670422535212
H -5.648775492957746 1.147700704225353 0.9733970422535213
H -6.189795492957747 0.5254307042253537 -0.5943629577464788
H -5.2178854929577465 2.002970704225354 -0.5139729577464787
C 3.6710445070422537 1.0263707042253536 -0.27764295774647874
O 2.7356545070422538 1.6631507042253526 -0.7327029577464788
O 3.650814507042253 0.3883007042253537 0.7790570422535212
O 4.756604507042254 0.8696707042253538 -0.8334829577464786
O -0.0033944986409717437 10.30090035678768 -3.3195373146743936
H -0.7945041711210994 10.017938984441416 -2.8367892387918414
H -0.3253580214433529 11.001704927939905 -3.906201091753588
O 9.622935797411618 2.8585529173260866 11.38286639698761
H 9.875548835209557 2.5850292766477203 12.277482978560158
H 10.454807513960791 2.8328419895898693 10.886589921925097
O -3.85653707478209 -5.201592941678068 4.985458827048187
H -3.4912304477880944 -4.973496683934702 4.117420508551969
H -3.0754059770315196 -5.292220106587535 5.551659206249279
O -13.05024223709814 2.0322248120680753 -2.2388926090903647
H -13.31174622319805 2.5305503680457386 -3.027723809293179
H -12.093168703788518 2.1720231677279482 -2.1803382250270804
O 12.316777993680342 -5.884739658906252 -1.4464710663636224
H 12.91323848005243 -6.017423695120928 -2.1985330263313863
H 11.444739050571318 -5.778164867312713 -1.8553131383157262
O -2.4200823886258096 3.0753453242344264 -10.809913279300643
H -2.4226492983576717 3.1182721921190804 -11.777961858602346
H -3.0899547973528416 2.4062913052081703 -10.603516525568764
O -7.5882427602251195 0.7161627067782521 4.051782976863032
H -7.294416621025211 0.7459315726276907 3.12888137243875
H -7.580564458662066 -0.22802622396397298 4.269521928474727
O 5.4802723545990855 -4.060869144975456 -6.107228596832767
H 5.8623563020275515 -4.150315438686893 -6.9932187630077465
H 5.478039637019149 -4.965840110158956 -5.760840791840946
O -6.727664338371556 4.7666897097484195 9.825233279940594
H -6.72783313498906 4.982029164708491 10.77000639955461
H -6.082880967351651 4.047355359879759 9.74924353158439
O -1.808970905741301 -8.014118856773937 -4.353113265657032
H -1.858840447310469 -8.082374078351977 -3.387804190567082
H -2.2794345637837736 -8.800557095010994 -4.66797956775983
O 3.3489015337199093 7.008948359007546 3.3568914366840867
H 3.2112382206509578 7.075378183354133 2.400019842596268
H 3.8168160053715763 6.167741723986649 3.4681990676702834
O -5.342536249012733 -0.5645676860410975 9.78348386467978
H -6.124885614644521 -0.0033856620117127534 9.674069227168046
H -4.639313030305233 0.05809105032456818 10.021675273001271
O 7.323961573529628 -3.5090212223465613 0.36910785222988285
H 6.74428812085238 -2.7351804402733886 0.30494798033460335
H 6.911960843057765 -4.159508273073857 -0.21918114072065187
O -3.9499318462861215 8.238069811874048 -4.657571182040931
H -4.001223317363403 7.705602485681557 -3.8496014496671562
H -3.055557341643195 8.610356864618272 -4.636157632504712
O -1.2950997917144575 -6.673759091834957 -7.908265271338138
H -1.6267495014354707 -5.766065020745264 -7.837080299254228
H -1.368465722322845 -7.021140498683082 -7.00665252591903
O 7.405410802843898 -5.439624868385913 10.3889806164835
H 7.041331297166078 -6.3078585866187815 10.61829193536882
H 8.26508173510317 -5.420900530757595 10.835721292613236
O 2.710891375040206 -3.818684355938604 3.484195485187456
H 1.9667096449949582 -3.823460862565791 4.10479043727078
H 3.057139618114327 -4.72269970751511 3.5269779884112022
O 5.952695548936656 -6.064861788570994 -8.038616736243254
H 5.679216691848387 -6.205535266611088 -7.119711058710572
H 5.28907307122004 -5.451895002399713 -8.389100502515117
O 2.340246366624997 -9.435321754588566 -5.303242304143628
H 2.838880370217223 -9.94353187953627 -4.6459341904996325
H 1.6149980215030397 -9.042661011656712 -4.794523989987289
O 2.2344749541662305 1.1916018207319143 5.067089995195209
H 1.2777171426719343 1.3437910243266984 5.087591052578455
H 2.3949784097689273 0.6083839913581932 5.8240956415018905
O 1.202474470017199 -11.327918233289562 5.948230237529517
H 0.6522828456239731 -12.125186802448031 5.923343253390136
H 0.807826866123543 -10.7501721380288 5.277838812724621
O 8.621058499007871 -0.6959033959862415 -13.20588844717509
H 8.44027118680713 -0.23090253995364796 -14.036585448816595
H 7.762652223829287 -0.7150098933138813 -12.756738636094315
O 2.8703287500598123 -11.606951882327095 4.014983718799906
H 3.4248620232851703 -11.560652891542361 4.808278499595976
H 2.773511158149801 -10.682022959625264 3.7427801439769914
O -1.6595787931388402 3.3227100648821235 -3.482414225515251
H -1.1106152349375844 4.0891028117929125 -3.25825239524624
H -2.34589866709421 3.3183082456313686 -2.798376508060162
C -8.97920197648914 8.604361684612714 4.975979641880549
O -8.654731186390272 9.38367751299189 4.127331420701541
O -9.303672766588004 7.8250458562335385 5.8246278630595585