146

C -5.3564454929577465 1.0091607042253532 -0.0734429577464788
C -4.079135492957747 0.16955070422535368 -0.19788295774647868
C -4.333545492957747 -1.2789292957746463 0.3017270422535212
C -3.1403854929577464 -2.1745492957746464 0.7330270422535212
C -2.905235492957746 0.902300704225353 0.41966704225352136
C -2.7423854929577463 1.056130704225354 1.8024770422535212
C -1.8861754929577463 1.3499307042253532 -0.4326129577464788
C -1.5304554929577463 1.5279207042253526 2.3254170422535214
H -3.5237954929577464 0.7301007042253529 2.484817042253521
C -0.6776454929577462 1.8010507042253527 0.08546704225352131
H -1.9759254929577463 1.2426607042253535 -1.5115229577464788
C -0.4680254929577463 1.8513207042253539 1.4698070422535212
H -1.3950654929577464 1.5446707042253527 3.404047042253521
H 0.1461845070422536 1.9972507042253538 -0.6030529577464789
C -1.8679654929577463 -2.0866092957746467 -0.08765295774647863
C -0.6628654929577462 -1.814079295774647 0.5787970422535212
C -1.8438954929577462 -2.213429295774647 -1.4808029577464787
C 0.5129345070422537 -1.5763292957746469 -0.13022295774647863
H -0.6401854929577462 -1.7032692957746463 1.6609470422535213
C -0.6547954929577462 -1.9962392957746466 -2.1933129577464787
H -2.7578654929577464 -2.4351492957746466 -2.026182957746479
C 0.5308845070422537 -1.645769295774647 -1.5261029577464789
H 1.4044045070422537 -1.2610992957746463 0.41551704225352126
H -0.6795654929577464 -2.0467992957746466 -3.2793129577464786
C 1.7843245070422535 -1.2521692957746469 -2.2771629577464787
H 1.4981245070422535 -0.9384492957746469 -3.290282957746479
H 2.241984507042254 -0.38631929577464685 -1.8135029577464787
C 0.9385645070422537 2.0647807042253534 1.9815670422535212
H 1.0508945070422537 1.5807407042253532 2.9609770422535213
H 1.6053245070422537 1.5496207042253536 1.3096170422535214
C 3.9676945070422533 -1.6881692957746468 -3.314052957746479
H 4.795084507042254 -2.398849295774647 -3.4044129577464783
H 3.548404507042253 -1.4816192957746468 -4.303802957746479
H 4.307714507042253 -0.7637192957746466 -2.851282957746479
C 2.344694507042253 -3.565079295774647 -3.101282957746479
H 1.6334345070422536 -4.047909295774646 -2.4251929577464786
H 1.8561845070422536 -3.293109295774647 -4.041792957746479
H 3.1808045070422537 -4.243519295774647 -3.298122957746479
C 3.5156645070422536 -2.648489295774647 -1.1110629577464786
H 3.9311845070422535 -1.748249295774647 -0.6771029577464787
H 2.767184507042254 -3.1044092957746465 -0.45972295774647876
H 4.319224507042254 -3.371819295774647 -1.2863129577464787
C 2.963994507042253 3.381090704225353 2.401027042253521
H 3.3337945070422537 4.369820704225353 2.6912870422535216
H 3.120994507042253 2.671350704225353 3.2183370422535216
H 3.4665445070422534 3.0664207042253535 1.4881370422535212
C 1.2973745070422538 4.282440704225354 0.8488370422535213
H 1.7592145070422538 3.7367207042253527 0.02653704225352116
H 0.23311450704225378 4.4484607042253534 0.6605570422535213
H 1.7921845070422535 5.251370704225354 0.9736770422535213
C 0.7724845070422537 4.194670704225353 3.2772470422535216
H -0.2956954929577462 4.278220704225354 3.057857042253521
H 0.9298945070422537 3.612620704225354 4.190337042253521
H 1.2046345070422537 5.193640704225353 3.3918370422535213
N 2.876084507042253 -2.324759295774647 -2.4576629577464786
N 1.4527845070422536 3.504690704225353 2.1388470422535213
C -3.593905492957746 -3.637819295774647 0.8297870422535213
H -2.8952554929577463 -1.8680692957746468 1.7595270422535212
H -5.022615492957747 -1.2402792957746467 1.1579970422535213
H -4.898275492957747 -1.7933092957746464 -0.48931295774647876
H -3.883675492957746 0.07871070422535364 -1.2758929577464788
H -3.8751654929577466 -4.038529295774646 -0.1505529577464788
H -4.4603554929577465 -3.7321892957746465 1.4932570422535212
H -2.7953554929577464 -4.271929295774647 1.2313670422535212
H -5.648775492957746 1.147700704225353 0.9733970422535213
H -6.189795492957747 0.5254307042253537 -0.5943629577464788
H -5.2178854929577465 2.002970704225354 -0.5139729577464787
C 3.6710445070422537 1.0263707042253536 -0.27764295774647874
O 2.7356545070422538 1.6631507042253526 -0.7327029577464788
O 3.650814507042253 0.3883007042253537 0.7790570422535212
O 4.756604507042254 0.8696707042253538 -0.8334829577464786
O 4.456258428501682 -9.717732774585459 8.646086193745198
H 3.950392081525218 -10.076916994665936 9.390433754997245
H 4.8989814401979865 -8.939948900946664 9.017583872233216
O 7.998357876174038 3.7385175599126965 -3.5566326991479027
H 7.598421151833065 3.9042613603898197 -4.423550784105654
H 7.4657839273429545 3.0183021437528064 -3.1870157519551343
O 14.278946831153743 1.990889691517335 0.6045257405744788
H 14.805376378524974 1.6166551478556643 1.3268745447438115
H 13.420658143108255 2.1785697828105794 1.0132783009399366
O 1.9741856879668092 -9.180867621139353 -3.557690419780375
H 2.2619139241385415 -8.4230808027114 -4.088669663090644
H 2.2410732345521023 -9.949866048697654 -4.0834036497741995
O -5.054456659135241 -0.18500357421599944 -5.382520765258249
H -5.682885684475572 0.5458922569222531 -5.481695363994643
H -4.93216249982244 -0.2601299527357088 -4.42420865005335
O -11.599410828620783 -0.9377618451206571 9.253154036080785
H -11.609473806086399 -0.2092921999733539 8.614250233084206
H -10.680035287648384 -1.2437684476546735 9.244756526492068
O 6.5368605140470315 -3.3355668415018362 2.060267469981607
H 6.59899941707321 -3.014075676709441 2.9722705097743116
H 7.459799493481856 -3.4599192398169625 1.7925324039684272
O 3.2833554489656205 -6.4810265654614865 -4.759122959003564
H 3.6433917966443836 -6.718310058513303 -3.891345493765346
H 2.5506590171331665 -5.881487168845929 -4.552554822579175
O 3.252138655897674 6.778277557060587 2.758076135318378
H 2.5926213002793754 6.288004252435547 3.2715313926780527
H 4.037959534380003 6.211952047841143 2.7849630996058394
O -2.0791670453376714 -10.08598038202488 -10.50859372063597
H -1.302254448322552 -10.441219963676673 -10.051232798467181
H -1.7131188656285952 -9.671350223296042 -11.304239688327737
O 4.042046923063425 -12.706477646927587 -9.682339043246019
H 4.906276790358844 -13.139204725549828 -9.751775120335697
H 4.062818051519173 -12.0296482704018 -10.375471425691387
O -5.357134889288632 11.81677836387711 1.9985475380604294
H -4.498518466891045 11.981013899478985 2.4166048127665833
H -5.9729574248227255 11.757008262172562 2.744303586624965
O -5.756255802153333 5.478193093837061 4.141771020525988
H -6.452299385504671 5.6012446661881805 3.478936955682194
H -5.199949063852696 6.265789560671859 4.04597664359995
O 2.9704746895100858 -1.8322729746843094 -7.184958065644233
H 3.0135040536426163 -0.9096222843565507 -7.477928259281848
H 2.7725223799206073 -1.7683436933097927 -6.238549129501337
O -4.247008502586104 9.083374132218776 -2.975449289147359
H -4.6160365445051115 8.227263758106975 -2.711137563119971
H -3.825589664662329 9.415727887971821 -2.168659918629985
O 5.199286716533194 4.7257781181163105 0.5697069551411595
H 6.0057727546263955 4.23091410728014 0.3607638096688285
H 4.86613254353609 4.3013151804780385 1.3745680958891167
O 6.109690602843303 -4.622647421817781 6.286037703976723
H 5.914810118754577 -5.503835834095494 6.638877520166496
H 6.5322028247510415 -4.162179315203043 7.026587830186437
O -0.3626027133940095 9.967095260269287 6.437181873068454
H -0.5182591939307786 10.878377346940852 6.146831437424856
H -0.3798554735869386 9.453513652861009 5.615659981030479
O 11.256040436415764 7.514809137393945 5.834115991481868
H 11.007506140739771 8.244693930398492 6.421028463417461
H 10.410954456450845 7.204697639414935 5.475476214563655
O 0.4725695026979835 7.5423661973038625 -1.8767436686135013
H 0.451486017910147 7.515470425252564 -2.845144133821448
H -0.16927867994860213 6.867278974797545 -1.609816531098449
O 4.584727970321053 -8.497236065423875 -6.986949690503998
H 4.607566185087869 -8.46846788593016 -7.9552565451192505
H 5.3001905785828205 -7.90156611310173 -6.718151423434058
O 8.288842229622603 -6.003066300656485 -10.778484272164187
H 8.041054919341718 -6.229282219607132 -11.687547066352288
H 7.472613162814893 -5.648969785010609 -10.39462529753201
O 2.136373367145126 12.536992162563461 -1.8714860731159646
H 2.4322133139515385 13.326258168863909 -2.349508304891977
H 2.885554544681831 11.926426422271094 -1.9414788177824673
O -7.005136683621327 -1.644943943680677 -0.20043789187356553
H -6.375854321012927 -2.0277805088276564 0.4291708988818138
H -7.075589667697659 -2.3144860685215285 -0.8973680636973551
C -3.6470184659777845 1.391328343426538 4.443227989914912
O -4.500142028162439 0.5782573696924678 4.233671227636769
O -2.7938949037931304 2.204399317160608 4.652784752193054