146

C -5.3564454929577465 1.0091607042253532 -0.0734429577464788
C -4.079135492957747 0.16955070422535368 -0.19788295774647868
C -4.333545492957747 -1.2789292957746463 0.3017270422535212
C -3.1403854929577464 -2.1745492957746464 0.7330270422535212
C -2.905235492957746 0.902300704225353 0.41966704225352136
C -2.7423854929577463 1.056130704225354 1.8024770422535212
C -1.8861754929577463 1.3499307042253532 -0.4326129577464788
C -1.5304554929577463 1.5279207042253526 2.3254170422535214
H -3.5237954929577464 0.7301007042253529 2.484817042253521
C -0.6776454929577462 1.8010507042253527 0.08546704225352131
H -1.9759254929577463 1.2426607042253535 -1.5115229577464788
C -0.4680254929577463 1.8513207042253539 1.4698070422535212
H -1.3950654929577464 1.5446707042253527 3.404047042253521
H 0.1461845070422536 1.9972507042253538 -0.6030529577464789
C -1.8679654929577463 -2.0866092957746467 -0.08765295774647863
C -0.6628654929577462 -1.814079295774647 0.5787970422535212
C -1.8438954929577462 -2.213429295774647 -1.4808029577464787
C 0.5129345070422537 -1.5763292957746469 -0.13022295774647863
H -0.6401854929577462 -1.7032692957746463 1.6609470422535213
C -0.6547954929577462 -1.9962392957746466 -2.1933129577464787
H -2.7578654929577464 -2.4351492957746466 -2.026182957746479
C 0.5308845070422537 -1.645769295774647 -1.5261029577464789
H 1.4044045070422537 -1.2610992957746463 0.41551704225352126
H -0.6795654929577464 -2.0467992957746466 -3.2793129577464786
C 1.7843245070422535 -1.2521692957746469 -2.2771629577464787
H 1.4981245070422535 -0.9384492957746469 -3.290282957746479
H 2.241984507042254 -0.38631929577464685 -1.8135029577464787
C 0.9385645070422537 2.0647807042253534 1.9815670422535212
H 1.0508945070422537 1.5807407042253532 2.9609770422535213
H 1.6053245070422537 1.5496207042253536 1.3096170422535214
C 3.9676945070422533 -1.6881692957746468 -3.314052957746479
H 4.795084507042254 -2.398849295774647 -3.4044129577464783
H 3.548404507042253 -1.4816192957746468 -4.303802957746479
H 4.307714507042253 -0.7637192957746466 -2.851282957746479
C 2.344694507042253 -3.565079295774647 -3.101282957746479
H 1.6334345070422536 -4.047909295774646 -2.4251929577464786
H 1.8561845070422536 -3.293109295774647 -4.041792957746479
H 3.1808045070422537 -4.243519295774647 -3.298122957746479
C 3.5156645070422536 -2.648489295774647 -1.1110629577464786
H 3.9311845070422535 -1.748249295774647 -0.6771029577464787
H 2.767184507042254 -3.1044092957746465 -0.45972295774647876
H 4.319224507042254 -3.371819295774647 -1.2863129577464787
C 2.963994507042253 3.381090704225353 2.401027042253521
H 3.3337945070422537 4.369820704225353 2.6912870422535216
H 3.120994507042253 2.671350704225353 3.2183370422535216
H 3.4665445070422534 3.0664207042253535 1.4881370422535212
C 1.2973745070422538 4.282440704225354 0.8488370422535213
H 1.7592145070422538 3.7367207042253527 0.02653704225352116
H 0.23311450704225378 4.4484607042253534 0.6605570422535213
H 1.7921845070422535 5.251370704225354 0.9736770422535213
C 0.7724845070422537 4.194670704225353 3.2772470422535216
H -0.2956954929577462 4.278220704225354 3.057857042253521
H 0.9298945070422537 3.612620704225354 4.190337042253521
H 1.2046345070422537 5.193640704225353 3.3918370422535213
N 2.876084507042253 -2.324759295774647 -2.4576629577464786
N 1.4527845070422536 3.504690704225353 2.1388470422535213
C -3.593905492957746 -3.637819295774647 0.8297870422535213
H -2.8952554929577463 -1.8680692957746468 1.7595270422535212
H -5.022615492957747 -1.2402792957746467 1.1579970422535213
H -4.898275492957747 -1.7933092957746464 -0.48931295774647876
H -3.883675492957746 0.07871070422535364 -1.2758929577464788
H -3.8751654929577466 -4.038529295774646 -0.1505529577464788
H -4.4603554929577465 -3.7321892957746465 1.4932570422535212
H -2.7953554929577464 -4.271929295774647 1.2313670422535212
H -5.648775492957746 1.147700704225353 0.9733970422535213
H -6.189795492957747 0.5254307042253537 -0.5943629577464788
H -5.2178854929577465 2.002970704225354 -0.5139729577464787
C 3.6710445070422537 1.0263707042253536 -0.27764295774647874
O 2.7356545070422538 1.6631507042253526 -0.7327029577464788
O 3.650814507042253 0.3883007042253537 0.7790570422535212
O 4.756604507042254 0.8696707042253538 -0.8334829577464786
O -11.120803345854116 0.5213635909713983 0.3874168157985064
H -10.408701573423862 0.8322090835484051 0.966427612197201
H -11.779930825128943 1.230628890789542 0.4255697296936243
O 6.722280538616267 -4.612506533590698 -4.504087857625779
H 7.488251644858687 -4.883683474084048 -3.9761497095000444
H 7.103625114762245 -4.061163329724902 -5.203772736764268
O -6.384076224945124 10.611055426930513 6.96906091718905
H -6.929152376115609 10.85593325871702 7.731880813248869
H -5.591010388439628 10.218903819249888 7.364314810100097
O 6.8969132802511695 6.678663583034096 -2.178341340615867
H 7.293823519953821 7.449028485627277 -2.611893569732247
H 7.405577128974066 6.583222917179571 -1.3591257935199548
O 0.657667668474204 -11.669423678280042 2.4909773985564954
H 0.7049221932107428 -12.61651830608911 2.6903417202570594
H 0.6593350875771665 -11.246360472472992 3.3627438167590986
O 9.887862873841406 -0.9138567994630049 -3.660475498640955
H 9.229127221339795 -0.744033971217991 -4.350544266250491
H 9.63471380722836 -1.7781373956025983 -3.3028492335127737
O 2.6769091938990406 1.3500979603256504 5.545932422508853
H 3.4602808696557252 0.8270782354872603 5.773411085139305
H 2.8014763451780125 1.5627196112901465 4.6087894223944765
O 3.3650357700399516 -4.242544768871544 8.046672726494615
H 3.4003736336137544 -3.28957125406683 8.218603155386043
H 3.6414158517033695 -4.6420539322732095 8.88510484844476
O -2.727661599127954 1.105446867953276 8.985596066307734
H -3.6778526016572415 1.2782797569988769 8.906645397681432
H -2.6811908293694047 0.2781549568383342 9.487980884611227
O -7.102717339573014 -0.30515518516245965 -7.8253223820550835
H -6.904602019723487 -0.11512474106704973 -8.754626480430757
H -7.4564389220955025 0.5306346664080133 -7.48576633311825
O 3.541763063555628 7.710953896320779 1.7346947782729094
H 4.495106541962568 7.564576611698456 1.6415429687062075
H 3.4424476789713037 8.036110251428989 2.642093116059358
O -3.076721596813563 4.465311513807589 7.5122341650179
H -3.2257630197520895 5.1461196126364985 8.18547583315604
H -2.9248886194224135 4.969700313213614 6.698907274825348
O -8.077090051379004 3.877940763507617 11.268265550262235
H -7.989572448706734 4.02045624415623 12.222727369246105
H -7.866036396448666 4.7413646628674995 10.882367287692007
O -6.868179001422404 6.917370909864431 -5.144495591894836
H -6.3190630020321725 7.11248392491676 -5.918685418404367
H -6.279808023859057 7.08274676084886 -4.392543223075955
O 10.868994364017535 5.80595567127783 6.124817880961994
H 10.918073049507441 6.753114672982507 6.323434257478086
H 11.593904936212027 5.420941931201799 6.639823731970816
O -0.3001146475000418 -9.120928574154277 -5.749077812377067
H -0.6818746878254189 -9.91996008240349 -5.355662920264734
H 0.4335127892395394 -9.452968570027906 -6.288060344100638
O -1.9881893201213954 9.623530413738127 4.386544843516809
H -2.3201043588533574 9.68221317400849 3.4780537331527
H -1.2717232878428848 10.27525061332863 4.416530679119697
O 8.44156353049636 -5.256633482831956 4.286352260964236
H 8.765260646708581 -5.166413029505455 5.1952239810972
H 8.889446001590073 -6.049889890138946 3.9560380035465554
O 1.5183774538979293 7.2865329387324875 0.07106997023350185
H 1.6001406148588238 7.2114159335607555 1.0336911719238209
H 1.8256144321708376 6.42831415343181 -0.2576060100856589
O 14.912586883682158 0.6116094687117277 -8.389362598319888
H 15.373995496055354 1.4284010112998544 -8.632099133032634
H 15.003994456842427 0.5687000969189606 -7.42563785251261
O 2.1299276682864012 -1.96562307879302 6.2672603293008375
H 2.925987605106732 -1.774190484298114 5.748984827608387
H 2.0934707415919953 -2.9336384702452354 6.291323552435178
O -10.439984401476051 1.0986931640159834 7.039462642881227
H -10.425118324375008 0.7957642359582642 7.959778035123161
H -11.098722908758862 0.5281004235427038 6.615847903003111
O 0.9627108657859894 -0.6242271551143999 4.418116204554799
H 0.689207041421202 -0.7714610908867665 5.3359861207819375
H 1.6466159969988126 -1.293939165100103 4.267379548489726
O -8.890327414785254 6.6617376377482875 -2.2266277003286286
H -8.823815746755681 6.508505905272512 -3.1811242121495975
H -7.970387753322898 6.770821949610948 -1.9424207748782183
C 10.500273349752527 -2.914481084145303 -0.40972456584277084
O 10.807885848387896 -4.020582880594386 -0.7484451348600916
O 10.19266085111716 -1.8083792876962206 -0.07100399682544989