146

C -5.3564454929577465 1.0091607042253532 -0.0734429577464788
C -4.079135492957747 0.16955070422535368 -0.19788295774647868
C -4.333545492957747 -1.2789292957746463 0.3017270422535212
C -3.1403854929577464 -2.1745492957746464 0.7330270422535212
C -2.905235492957746 0.902300704225353 0.41966704225352136
C -2.7423854929577463 1.056130704225354 1.8024770422535212
C -1.8861754929577463 1.3499307042253532 -0.4326129577464788
C -1.5304554929577463 1.5279207042253526 2.3254170422535214
H -3.5237954929577464 0.7301007042253529 2.484817042253521
C -0.6776454929577462 1.8010507042253527 0.08546704225352131
H -1.9759254929577463 1.2426607042253535 -1.5115229577464788
C -0.4680254929577463 1.8513207042253539 1.4698070422535212
H -1.3950654929577464 1.5446707042253527 3.404047042253521
H 0.1461845070422536 1.9972507042253538 -0.6030529577464789
C -1.8679654929577463 -2.0866092957746467 -0.08765295774647863
C -0.6628654929577462 -1.814079295774647 0.5787970422535212
C -1.8438954929577462 -2.213429295774647 -1.4808029577464787
C 0.5129345070422537 -1.5763292957746469 -0.13022295774647863
H -0.6401854929577462 -1.7032692957746463 1.6609470422535213
C -0.6547954929577462 -1.9962392957746466 -2.1933129577464787
H -2.7578654929577464 -2.4351492957746466 -2.026182957746479
C 0.5308845070422537 -1.645769295774647 -1.5261029577464789
H 1.4044045070422537 -1.2610992957746463 0.41551704225352126
H -0.6795654929577464 -2.0467992957746466 -3.2793129577464786
C 1.7843245070422535 -1.2521692957746469 -2.2771629577464787
H 1.4981245070422535 -0.9384492957746469 -3.290282957746479
H 2.241984507042254 -0.38631929577464685 -1.8135029577464787
C 0.9385645070422537 2.0647807042253534 1.9815670422535212
H 1.0508945070422537 1.5807407042253532 2.9609770422535213
H 1.6053245070422537 1.5496207042253536 1.3096170422535214
C 3.9676945070422533 -1.6881692957746468 -3.314052957746479
H 4.795084507042254 -2.398849295774647 -3.4044129577464783
H 3.548404507042253 -1.4816192957746468 -4.303802957746479
H 4.307714507042253 -0.7637192957746466 -2.851282957746479
C 2.344694507042253 -3.565079295774647 -3.101282957746479
H 1.6334345070422536 -4.047909295774646 -2.4251929577464786
H 1.8561845070422536 -3.293109295774647 -4.041792957746479
H 3.1808045070422537 -4.243519295774647 -3.298122957746479
C 3.5156645070422536 -2.648489295774647 -1.1110629577464786
H 3.9311845070422535 -1.748249295774647 -0.6771029577464787
H 2.767184507042254 -3.1044092957746465 -0.45972295774647876
H 4.319224507042254 -3.371819295774647 -1.2863129577464787
C 2.963994507042253 3.381090704225353 2.401027042253521
H 3.3337945070422537 4.369820704225353 2.6912870422535216
H 3.120994507042253 2.671350704225353 3.2183370422535216
H 3.4665445070422534 3.0664207042253535 1.4881370422535212
C 1.2973745070422538 4.282440704225354 0.8488370422535213
H 1.7592145070422538 3.7367207042253527 0.02653704225352116
H 0.23311450704225378 4.4484607042253534 0.6605570422535213
H 1.7921845070422535 5.251370704225354 0.9736770422535213
C 0.7724845070422537 4.194670704225353 3.2772470422535216
H -0.2956954929577462 4.278220704225354 3.057857042253521
H 0.9298945070422537 3.612620704225354 4.190337042253521
H 1.2046345070422537 5.193640704225353 3.3918370422535213
N 2.876084507042253 -2.324759295774647 -2.4576629577464786
N 1.4527845070422536 3.504690704225353 2.1388470422535213
C -3.593905492957746 -3.637819295774647 0.8297870422535213
H -2.8952554929577463 -1.8680692957746468 1.7595270422535212
H -5.022615492957747 -1.2402792957746467 1.1579970422535213
H -4.898275492957747 -1.7933092957746464 -0.48931295774647876
H -3.883675492957746 0.07871070422535364 -1.2758929577464788
H -3.8751654929577466 -4.038529295774646 -0.1505529577464788
H -4.4603554929577465 -3.7321892957746465 1.4932570422535212
H -2.7953554929577464 -4.271929295774647 1.2313670422535212
H -5.648775492957746 1.147700704225353 0.9733970422535213
H -6.189795492957747 0.5254307042253537 -0.5943629577464788
H -5.2178854929577465 2.002970704225354 -0.5139729577464787
C 3.6710445070422537 1.0263707042253536 -0.27764295774647874
O 2.7356545070422538 1.6631507042253526 -0.7327029577464788
O 3.650814507042253 0.3883007042253537 0.7790570422535212
O 4.756604507042254 0.8696707042253538 -0.8334829577464786
O 5.670081324625693 -8.0280595387175 3.756872305402701
H 5.6813475241534395 -7.130340736071694 4.121483579260741
H 5.160441585308911 -8.537447326149808 4.404756062278838
O 9.76521459167558 -5.66020904114738 -1.3026564037954413
H 9.6929136038728 -5.489487686195556 -0.3515548618840862
H 10.336556455925802 -4.947323423042196 -1.625649459376929
O -3.2395648104179626 -11.71012543214184 5.080195290386051
H -3.291392186188018 -11.770068597070896 6.045953074200956
H -2.3262285997662326 -11.963415400063788 4.8786435532006935
O 4.146418246580704 15.013041244485521 0.9089955872883344
H 3.7054300918176084 15.865912044393195 1.039793916495876
H 3.4172908045911714 14.393811423896706 0.7544331502884511
O 1.1771285944259402 1.4762683978701787 -3.0374262636998393
H 1.1134296028814292 1.4935882157946354 -2.0706740621076847
H 0.33694610697794836 1.85702386113832 -3.33421003899284
O -1.1532766866442623 6.600276443522599 -7.121928842231805
H -1.927244579741584 6.047685019172102 -6.935961707799985
H -0.5265891554721454 5.991790771228299 -7.541416469207799
O -2.1485076826764935 5.748404457155848 -12.806750705175386
H -1.3055106321507548 5.44739547160415 -12.435648400787443
H -2.677552456574385 5.979663450538833 -12.02855224109902
O 0.41172807397913136 -9.60456387065089 5.591593572793386
H 0.37294934306053307 -9.5955170155463 6.559778328581794
H 0.47376527424765635 -8.667941216076596 5.351070532273269
O 8.511641244377897 -1.5420232879236115 -6.182124485509184
H 8.305521801776731 -0.7464447949974842 -5.668765942310401
H 8.364664379962704 -2.2681789212997723 -5.557578456987072
O -7.63749670546766 -11.796545890516947 3.978046632389571
H -7.045349579918842 -12.466107469130282 4.352234327335689
H -7.746547764613468 -12.070161294591202 3.0548974453929825
O 5.1494939955205705 2.9477149910843123 8.902460096840258
H 5.356614952309867 3.035732708644242 9.844968000018913
H 4.981563143778389 3.8573436382260318 8.613778788764602
O 1.2977379407123855 3.519574401662612 -6.639876146447794
H 0.6266521587749172 3.459668840131374 -5.943440540035395
H 0.7815519151559513 3.5819984813118926 -7.457566286782256
O 1.7702686860489378 -9.397859015828331 -4.788516390164496
H 1.650942221109418 -9.380060829599358 -5.749979741640774
H 2.395230419596234 -10.12407706483551 -4.643629809703201
O -5.655274642005887 -4.861282175766032 -1.9673415435159107
H -5.447604829231671 -4.681483527644645 -2.8965955733140305
H -4.854641582667207 -5.287954532680287 -1.6269016098429958
O 11.854957467386846 3.1404193393416113 7.9584325622352035
H 11.567023315323118 3.8352964672932632 7.347525811556341
H 11.167146099906567 3.129007372573528 8.64088932575901
O -1.6712962246735414 9.052514217188772 6.625727330784316
H -1.6199673569733437 8.983830594501807 5.660525142527776
H -0.8673643560364716 8.60869010748271 6.9350421453880315
O -9.842883566441484 -3.9714851989133733 -7.520952318584656
H -10.30960781568534 -4.176129085624041 -8.345122635751995
H -10.145950840164902 -3.079081610626336 -7.295723529327438
O -0.6097872786315932 -9.042949332103973 11.27335557320565
H -0.9478534047568341 -9.015248684809503 12.181051185955951
H -1.1388849903678622 -8.379056116729014 10.806168935645733
O -4.058322141995678 -6.904577987779735 1.0173186428907375
H -4.464226637541511 -7.58116464844879 1.5798480981198673
H -4.521490090076899 -6.99513289402409 0.1710106580971955
O -3.0506264082532537 10.618523280296603 4.4299869592640535
H -2.5078935228600385 11.288044290674922 4.87287519423395
H -2.816287626196725 9.7925888116494 4.879297022610871
O -5.28403988230145 -4.874726757733611 5.498245138394224
H -4.93421725632373 -4.6096041821039115 4.6343576994616225
H -4.535923031118534 -5.315373974725708 5.928492917509095
O -11.705113222279532 3.1156774291578806 2.0953994735406747
H -12.476376158292732 2.6486199815867675 2.4503335253033374
H -10.953765149250493 2.7059254736246796 2.5498676818812216
O 8.275493561857026 0.561477130198651 6.343461262340435
H 7.777948985431317 1.2130679074886483 6.860032854977874
H 7.592700195925724 -0.029910210251517855 5.992724641361846
O 3.6573166834805937 -10.50680702347569 8.522898913261479
H 3.769554471279137 -10.454824152667483 7.561822528663132
H 3.061984542442299 -9.770608128271686 8.729182147789064
C 3.1056403025415524 -8.908153710903898 -0.20071767848466926
O 2.5736943538164394 -8.791911497200646 0.865274588226636
O 3.6375862512666655 -9.024395924607152 -1.2667099451959745