146

C -5.3564454929577465 1.0091607042253532 -0.0734429577464788
C -4.079135492957747 0.16955070422535368 -0.19788295774647868
C -4.333545492957747 -1.2789292957746463 0.3017270422535212
C -3.1403854929577464 -2.1745492957746464 0.7330270422535212
C -2.905235492957746 0.902300704225353 0.41966704225352136
C -2.7423854929577463 1.056130704225354 1.8024770422535212
C -1.8861754929577463 1.3499307042253532 -0.4326129577464788
C -1.5304554929577463 1.5279207042253526 2.3254170422535214
H -3.5237954929577464 0.7301007042253529 2.484817042253521
C -0.6776454929577462 1.8010507042253527 0.08546704225352131
H -1.9759254929577463 1.2426607042253535 -1.5115229577464788
C -0.4680254929577463 1.8513207042253539 1.4698070422535212
H -1.3950654929577464 1.5446707042253527 3.404047042253521
H 0.1461845070422536 1.9972507042253538 -0.6030529577464789
C -1.8679654929577463 -2.0866092957746467 -0.08765295774647863
C -0.6628654929577462 -1.814079295774647 0.5787970422535212
C -1.8438954929577462 -2.213429295774647 -1.4808029577464787
C 0.5129345070422537 -1.5763292957746469 -0.13022295774647863
H -0.6401854929577462 -1.7032692957746463 1.6609470422535213
C -0.6547954929577462 -1.9962392957746466 -2.1933129577464787
H -2.7578654929577464 -2.4351492957746466 -2.026182957746479
C 0.5308845070422537 -1.645769295774647 -1.5261029577464789
H 1.4044045070422537 -1.2610992957746463 0.41551704225352126
H -0.6795654929577464 -2.0467992957746466 -3.2793129577464786
C 1.7843245070422535 -1.2521692957746469 -2.2771629577464787
H 1.4981245070422535 -0.9384492957746469 -3.290282957746479
H 2.241984507042254 -0.38631929577464685 -1.8135029577464787
C 0.9385645070422537 2.0647807042253534 1.9815670422535212
H 1.0508945070422537 1.5807407042253532 2.9609770422535213
H 1.6053245070422537 1.5496207042253536 1.3096170422535214
C 3.9676945070422533 -1.6881692957746468 -3.314052957746479
H 4.795084507042254 -2.398849295774647 -3.4044129577464783
H 3.548404507042253 -1.4816192957746468 -4.303802957746479
H 4.307714507042253 -0.7637192957746466 -2.851282957746479
C 2.344694507042253 -3.565079295774647 -3.101282957746479
H 1.6334345070422536 -4.047909295774646 -2.4251929577464786
H 1.8561845070422536 -3.293109295774647 -4.041792957746479
H 3.1808045070422537 -4.243519295774647 -3.298122957746479
C 3.5156645070422536 -2.648489295774647 -1.1110629577464786
H 3.9311845070422535 -1.748249295774647 -0.6771029577464787
H 2.767184507042254 -3.1044092957746465 -0.45972295774647876
H 4.319224507042254 -3.371819295774647 -1.2863129577464787
C 2.963994507042253 3.381090704225353 2.401027042253521
H 3.3337945070422537 4.369820704225353 2.6912870422535216
H 3.120994507042253 2.671350704225353 3.2183370422535216
H 3.4665445070422534 3.0664207042253535 1.4881370422535212
C 1.2973745070422538 4.282440704225354 0.8488370422535213
H 1.7592145070422538 3.7367207042253527 0.02653704225352116
H 0.23311450704225378 4.4484607042253534 0.6605570422535213
H 1.7921845070422535 5.251370704225354 0.9736770422535213
C 0.7724845070422537 4.194670704225353 3.2772470422535216
H -0.2956954929577462 4.278220704225354 3.057857042253521
H 0.9298945070422537 3.612620704225354 4.190337042253521
H 1.2046345070422537 5.193640704225353 3.3918370422535213
N 2.876084507042253 -2.324759295774647 -2.4576629577464786
N 1.4527845070422536 3.504690704225353 2.1388470422535213
C -3.593905492957746 -3.637819295774647 0.8297870422535213
H -2.8952554929577463 -1.8680692957746468 1.7595270422535212
H -5.022615492957747 -1.2402792957746467 1.1579970422535213
H -4.898275492957747 -1.7933092957746464 -0.48931295774647876
H -3.883675492957746 0.07871070422535364 -1.2758929577464788
H -3.8751654929577466 -4.038529295774646 -0.1505529577464788
H -4.4603554929577465 -3.7321892957746465 1.4932570422535212
H -2.7953554929577464 -4.271929295774647 1.2313670422535212
H -5.648775492957746 1.147700704225353 0.9733970422535213
H -6.189795492957747 0.5254307042253537 -0.5943629577464788
H -5.2178854929577465 2.002970704225354 -0.5139729577464787
C 3.6710445070422537 1.0263707042253536 -0.27764295774647874
O 2.7356545070422538 1.6631507042253526 -0.7327029577464788
O 3.650814507042253 0.3883007042253537 0.7790570422535212
O 4.756604507042254 0.8696707042253538 -0.8334829577464786
O 1.525060593188491 8.610375058397132 1.0612242933841007
H 2.1114788994384166 8.029133797201503 1.5684121513604952
H 1.8485726231626378 9.501586829117606 1.2613329900748829
O -2.4945029613551997 5.348435693968516 -3.7079132429571118
H -1.6595776561831068 5.83859591718533 -3.7480386371524443
H -2.5742906208988927 5.097981693912178 -2.7752457418934595
O 4.672722771991566 -5.687896279497057 -0.6056286319028474
H 4.775797643720014 -6.3100723460838735 0.13006143183644348
H 4.5372853882881214 -4.832307154494531 -0.17136384105171576
O -1.4635493975395544 1.0256133673179726 -4.352238684800303
H -0.9048649506812176 0.2872539001268113 -4.0664689471656486
H -1.2179102835472924 1.1595886945681526 -5.279963849741572
O -0.7205951814256473 -1.320392948909752 7.344117887620101
H -1.1266879720269447 -1.4197411723991178 8.218295176738938
H 0.22686464381685756 -1.4351881866465899 7.51175999821402
O -8.809314120395566 -1.8627561008759974 0.45913742373748223
H -8.248802569469916 -2.3815651715331727 1.055485733354238
H -9.358696773729863 -2.5273378036413137 0.017015489351819735
O -6.669995153383267 -3.427846707611116 -2.7340081536313314
H -7.040992871252692 -2.9948103835175255 -1.9505494168422197
H -6.13182735807321 -4.147270720568027 -2.371011655064077
O -3.9888204588619844 0.4131291833853562 10.448955576234768
H -4.22094935411463 1.2490787830114507 10.017363407893221
H -3.022904976828651 0.3752652912726645 10.381609072670058
O -0.09517554318707783 5.924414562365911 5.451315167605168
H -0.20395090269861937 6.5724030387999015 6.163527363844388
H 0.8612772507337382 5.772850981165133 5.4168408560868855
O 1.666599581041753 5.7188360236963565 -5.4742157248694285
H 2.5745651461323265 5.40794969614028 -5.340366627567832
H 1.3643022683795558 5.229693245035044 -6.254162916120672
O -3.7014392809769134 2.492158347016203 12.270947319631386
H -3.9667182116465325 3.2674709819468735 12.78813661182492
H -3.8999195274555016 2.742049178816311 11.35600354636439
O 10.113797278745093 -2.924693454429734 5.749723026530491
H 10.068870283468879 -2.8788961478990274 4.78284582196417
H 9.822490503328734 -2.0470891364372688 6.039400377970851
O -7.51176526715009 -5.960449529688504 -1.9596959136059224
H -7.588877343125727 -6.921689161493654 -2.0547719615140547
H -6.720193285081546 -5.737317504654207 -2.472129168682299
O 4.965226055138219 -6.789824069600741 6.378915658093692
H 5.1058840747878484 -6.477435519033866 7.2853350267542325
H 4.742283401025508 -5.985784885596389 5.886189052497045
O 5.927824481009075 -1.0417233239720916 -7.666074202485727
H 5.895174893811617 -1.0395868353313285 -6.697623482638753
H 6.533180591719346 -1.7680051070549914 -7.878255010024153
O -2.000810660641336 7.911683327455317 -1.4671093475047152
H -2.710460232809684 8.564335763475455 -1.5641126432129706
H -1.8753372615430428 7.567284513984446 -2.364108694047719
O 6.334404474890714 -5.497220796102653 -7.3077546057676095
H 6.813554782793355 -5.569732856756435 -8.146875777230077
H 5.401619828935024 -5.5432755169324315 -7.566122001656895
O 0.3922921057345814 -1.279046251585603 -13.148178709568642
H 0.5700267220343118 -0.45590567257675896 -12.668786020577901
H -0.2541657830654511 -1.7389969028615475 -12.591851880538224
O 3.0429300905276926 -11.153003386656822 -4.195917562217684
H 2.846026082950841 -11.162717848217465 -3.2471806134606727
H 2.9980955429004834 -10.214948749256507 -4.434675399556744
O -3.286336356720187 -9.56483138573339 -11.115929348845018
H -3.2256478171438525 -9.726387436813454 -12.069440701909839
H -3.3805564127692316 -10.450399385436238 -10.734021188104231
O -5.742757324293312 8.66037565410911 -0.08507069020531421
H -6.582046150801142 8.176514506206237 -0.06409422364815143
H -5.2572551518788515 8.320205855606229 0.6814370351747674
O 3.170996494885628 8.14768055783608 -4.938655758926546
H 3.557862044404593 8.816432019013309 -5.5235265879723405
H 3.0225133314952934 7.386424689709912 -5.5195208015423605
O 0.9886714581113127 -10.190470827935876 0.18000617171812516
H 0.5383364480343973 -10.400439641486201 -0.6519065838850662
H 0.4056926659364033 -9.543527077942993 0.6049314081061654
O 5.859567704446174 -3.011860956078759 -5.6365961498420525
H 6.549514070112303 -2.4754285389638864 -6.055143197702143
H 6.27538083861268 -3.3347228756799487 -4.823071987554257
C 0.4717625328700914 -7.163718622675711 -5.345269959614155
O -0.3422199752605235 -7.191528690276069 -6.222468531145971
O 1.2857450410007063 -7.135908555075354 -4.468071388082341