146

C -5.3564454929577465 1.0091607042253532 -0.0734429577464788
C -4.079135492957747 0.16955070422535368 -0.19788295774647868
C -4.333545492957747 -1.2789292957746463 0.3017270422535212
C -3.1403854929577464 -2.1745492957746464 0.7330270422535212
C -2.905235492957746 0.902300704225353 0.41966704225352136
C -2.7423854929577463 1.056130704225354 1.8024770422535212
C -1.8861754929577463 1.3499307042253532 -0.4326129577464788
C -1.5304554929577463 1.5279207042253526 2.3254170422535214
H -3.5237954929577464 0.7301007042253529 2.484817042253521
C -0.6776454929577462 1.8010507042253527 0.08546704225352131
H -1.9759254929577463 1.2426607042253535 -1.5115229577464788
C -0.4680254929577463 1.8513207042253539 1.4698070422535212
H -1.3950654929577464 1.5446707042253527 3.404047042253521
H 0.1461845070422536 1.9972507042253538 -0.6030529577464789
C -1.8679654929577463 -2.0866092957746467 -0.08765295774647863
C -0.6628654929577462 -1.814079295774647 0.5787970422535212
C -1.8438954929577462 -2.213429295774647 -1.4808029577464787
C 0.5129345070422537 -1.5763292957746469 -0.13022295774647863
H -0.6401854929577462 -1.7032692957746463 1.6609470422535213
C -0.6547954929577462 -1.9962392957746466 -2.1933129577464787
H -2.7578654929577464 -2.4351492957746466 -2.026182957746479
C 0.5308845070422537 -1.645769295774647 -1.5261029577464789
H 1.4044045070422537 -1.2610992957746463 0.41551704225352126
H -0.6795654929577464 -2.0467992957746466 -3.2793129577464786
C 1.7843245070422535 -1.2521692957746469 -2.2771629577464787
H 1.4981245070422535 -0.9384492957746469 -3.290282957746479
H 2.241984507042254 -0.38631929577464685 -1.8135029577464787
C 0.9385645070422537 2.0647807042253534 1.9815670422535212
H 1.0508945070422537 1.5807407042253532 2.9609770422535213
H 1.6053245070422537 1.5496207042253536 1.3096170422535214
C 3.9676945070422533 -1.6881692957746468 -3.314052957746479
H 4.795084507042254 -2.398849295774647 -3.4044129577464783
H 3.548404507042253 -1.4816192957746468 -4.303802957746479
H 4.307714507042253 -0.7637192957746466 -2.851282957746479
C 2.344694507042253 -3.565079295774647 -3.101282957746479
H 1.6334345070422536 -4.047909295774646 -2.4251929577464786
H 1.8561845070422536 -3.293109295774647 -4.041792957746479
H 3.1808045070422537 -4.243519295774647 -3.298122957746479
C 3.5156645070422536 -2.648489295774647 -1.1110629577464786
H 3.9311845070422535 -1.748249295774647 -0.6771029577464787
H 2.767184507042254 -3.1044092957746465 -0.45972295774647876
H 4.319224507042254 -3.371819295774647 -1.2863129577464787
C 2.963994507042253 3.381090704225353 2.401027042253521
H 3.3337945070422537 4.369820704225353 2.6912870422535216
H 3.120994507042253 2.671350704225353 3.2183370422535216
H 3.4665445070422534 3.0664207042253535 1.4881370422535212
C 1.2973745070422538 4.282440704225354 0.8488370422535213
H 1.7592145070422538 3.7367207042253527 0.02653704225352116
H 0.23311450704225378 4.4484607042253534 0.6605570422535213
H 1.7921845070422535 5.251370704225354 0.9736770422535213
C 0.7724845070422537 4.194670704225353 3.2772470422535216
H -0.2956954929577462 4.278220704225354 3.057857042253521
H 0.9298945070422537 3.612620704225354 4.190337042253521
H 1.2046345070422537 5.193640704225353 3.3918370422535213
N 2.876084507042253 -2.324759295774647 -2.4576629577464786
N 1.4527845070422536 3.504690704225353 2.1388470422535213
C -3.593905492957746 -3.637819295774647 0.8297870422535213
H -2.8952554929577463 -1.8680692957746468 1.7595270422535212
H -5.022615492957747 -1.2402792957746467 1.1579970422535213
H -4.898275492957747 -1.7933092957746464 -0.48931295774647876
H -3.883675492957746 0.07871070422535364 -1.2758929577464788
H -3.8751654929577466 -4.038529295774646 -0.1505529577464788
H -4.4603554929577465 -3.7321892957746465 1.4932570422535212
H -2.7953554929577464 -4.271929295774647 1.2313670422535212
H -5.648775492957746 1.147700704225353 0.9733970422535213
H -6.189795492957747 0.5254307042253537 -0.5943629577464788
H -5.2178854929577465 2.002970704225354 -0.5139729577464787
C 3.6710445070422537 1.0263707042253536 -0.27764295774647874
O 2.7356545070422538 1.6631507042253526 -0.7327029577464788
O 3.650814507042253 0.3883007042253537 0.7790570422535212
O 4.756604507042254 0.8696707042253538 -0.8334829577464786
O 2.987040508861817 -8.890396933674165 2.8249683804751546
H 3.1106486758432705 -8.960293095186449 3.7835104528753876
H 2.024564370627461 -8.878641238833685 2.7133286417245737
O 0.9902290089650396 6.313745515594018 -12.863552490649418
H 1.4332803145641844 6.6811505019235184 -12.084010013598224
H 1.385191285177787 6.7952659515945655 -13.605916831376186
O -10.486036503609112 -8.421179857819551 6.51831222921951
H -10.447821358660672 -8.534037723868906 5.556662572812689
H -11.2801924139854 -7.884225089458728 6.6595847001718695
O 0.148597731672917 -7.585896858104857 1.1422118315136345
H -0.29594884985358194 -7.625691321369428 0.2821175957193294
H -0.25621508048122665 -8.306173049120687 1.6484634883717437
O 10.855527407536723 -2.886131094650012 6.130726634338699
H 11.01049002646814 -3.356247177879792 6.963760134218871
H 11.745733688726855 -2.670038541973634 5.81481726457034
O 8.638246186468475 -10.269796669025355 5.16384293078329
H 8.804224298040184 -11.221705960671962 5.236556917443
H 9.119105744804928 -10.008782532981055 4.364088186976466
O 4.484175238469871 -4.50824419685252 6.218688918942767
H 4.430643280039736 -4.529330759715255 5.251395249371178
H 3.693239779732263 -4.016498260028878 6.486212708593272
O 5.958881654141278 -1.405002915286067 -13.59729065495798
H 5.750282567488475 -1.8519204271972431 -14.431388080619241
H 6.670004819818645 -1.9414132421482448 -13.21580703961833
O -2.3537929958711334 -7.948343672575588 -7.152804935931931
H -3.159527129556664 -8.030808513741095 -7.6847442301052205
H -2.294436169031453 -6.999894256618758 -6.963378388746298
O -1.0596579860870952 2.263774883890712 6.393747406192449
H -0.32637944182879775 2.164317245170762 7.019349605301983
H -1.7885782677500832 1.7782935317933466 6.808409948564032
O 5.381751749523155 -3.8782361773472616 -12.209464162570452
H 5.3656277390188585 -3.8798288768255516 -13.178331974242214
H 5.35449227706114 -4.817640783049015 -11.973375509206027
O 0.5015256255197805 -0.02517234054755313 -5.282137199161646
H 0.6981984596684672 0.14695583855065658 -4.349046076511635
H 1.0464701366761824 0.6188230333737933 -5.758862888031477
O -10.094718530871049 2.2125621315414756 -3.0637503775338075
H -9.8449433111433 3.131903516641919 -2.886575000713117
H -9.870371782734399 2.0849060931043417 -3.997738823260546
O -8.106126623073141 2.2043447948713317 5.967015650510045
H -7.748554499967245 2.4596726872250514 6.830680632469919
H -8.099595425529188 3.0288336404964937 5.4579602201310635
O 3.5149889374664736 1.2344665638913848 8.28556525036587
H 4.209416708511583 1.77571652276463 8.69026996953904
H 3.763811413601047 1.1958429611361625 7.349852935078492
O -2.3374534147691977 12.132405172292724 -2.2554579896831353
H -3.2111106702025625 12.550296912058698 -2.287967230892532
H -1.72209362359389 12.879616354263359 -2.2110764479937055
O -12.454044119376427 -4.159452356927153 -4.81371587443886
H -12.084874022612352 -5.052474641857039 -4.74166037378962
H -12.60298425026691 -3.8928493361427066 -3.894095511996329
O -3.789029786733163 4.976254258519045 2.111401507864157
H -3.831275171235277 4.987267899522074 1.1433821980876802
H -4.7179681842521255 4.950535549304908 2.3859446664226214
O 7.770357228609495 7.20817613045386 6.430779841499509
H 7.267484799127677 7.66897453737367 7.1190759294930555
H 7.760288238185963 7.8232817779859545 5.68211062074446
O 3.7687365279629375 8.282455452232444 -2.8822554438953234
H 3.458519574593703 7.664734502988674 -3.561338375213501
H 3.7578768539855067 7.758822683711667 -2.0669930717031733
O 6.493750206378558 -11.404629766571476 1.7021908387636993
H 6.43984816449044 -12.357771827744784 1.5361121285007828
H 5.673484288863107 -11.054306488838094 1.3235097461003966
O 5.24511385953123 3.1006747669225216 -7.859288508075824
H 4.749974296094813 3.1959876933648563 -8.686766372234734
H 6.014449158454476 3.6775013491813957 -7.979106019860307
O 4.112609893142252 0.1594880534547935 -8.142074715433635
H 3.4471215460096776 0.6214948243745594 -7.610433520307592
H 3.7820166470415555 -0.7499968375414716 -8.192147492290086
O -2.961555713039518 -8.094731614860883 -2.3654331738794125
H -2.7315458021658503 -8.21605284059782 -3.2988912382752247
H -2.2489144813807034 -7.536739454731519 -2.019385245878141
C -6.4550068622884655 2.633470644392176 8.251489111492669
O -6.498065237052685 2.7398308194296277 7.059997715456311
O -6.4119484875242465 2.5271104693547244 9.442980507529027