146

C -5.3564454929577465 1.0091607042253532 -0.0734429577464788
C -4.079135492957747 0.16955070422535368 -0.19788295774647868
C -4.333545492957747 -1.2789292957746463 0.3017270422535212
C -3.1403854929577464 -2.1745492957746464 0.7330270422535212
C -2.905235492957746 0.902300704225353 0.41966704225352136
C -2.7423854929577463 1.056130704225354 1.8024770422535212
C -1.8861754929577463 1.3499307042253532 -0.4326129577464788
C -1.5304554929577463 1.5279207042253526 2.3254170422535214
H -3.5237954929577464 0.7301007042253529 2.484817042253521
C -0.6776454929577462 1.8010507042253527 0.08546704225352131
H -1.9759254929577463 1.2426607042253535 -1.5115229577464788
C -0.4680254929577463 1.8513207042253539 1.4698070422535212
H -1.3950654929577464 1.5446707042253527 3.404047042253521
H 0.1461845070422536 1.9972507042253538 -0.6030529577464789
C -1.8679654929577463 -2.0866092957746467 -0.08765295774647863
C -0.6628654929577462 -1.814079295774647 0.5787970422535212
C -1.8438954929577462 -2.213429295774647 -1.4808029577464787
C 0.5129345070422537 -1.5763292957746469 -0.13022295774647863
H -0.6401854929577462 -1.7032692957746463 1.6609470422535213
C -0.6547954929577462 -1.9962392957746466 -2.1933129577464787
H -2.7578654929577464 -2.4351492957746466 -2.026182957746479
C 0.5308845070422537 -1.645769295774647 -1.5261029577464789
H 1.4044045070422537 -1.2610992957746463 0.41551704225352126
H -0.6795654929577464 -2.0467992957746466 -3.2793129577464786
C 1.7843245070422535 -1.2521692957746469 -2.2771629577464787
H 1.4981245070422535 -0.9384492957746469 -3.290282957746479
H 2.241984507042254 -0.38631929577464685 -1.8135029577464787
C 0.9385645070422537 2.0647807042253534 1.9815670422535212
H 1.0508945070422537 1.5807407042253532 2.9609770422535213
H 1.6053245070422537 1.5496207042253536 1.3096170422535214
C 3.9676945070422533 -1.6881692957746468 -3.314052957746479
H 4.795084507042254 -2.398849295774647 -3.4044129577464783
H 3.548404507042253 -1.4816192957746468 -4.303802957746479
H 4.307714507042253 -0.7637192957746466 -2.851282957746479
C 2.344694507042253 -3.565079295774647 -3.101282957746479
H 1.6334345070422536 -4.047909295774646 -2.4251929577464786
H 1.8561845070422536 -3.293109295774647 -4.041792957746479
H 3.1808045070422537 -4.243519295774647 -3.298122957746479
C 3.5156645070422536 -2.648489295774647 -1.1110629577464786
H 3.9311845070422535 -1.748249295774647 -0.6771029577464787
H 2.767184507042254 -3.1044092957746465 -0.45972295774647876
H 4.319224507042254 -3.371819295774647 -1.2863129577464787
C 2.963994507042253 3.381090704225353 2.401027042253521
H 3.3337945070422537 4.369820704225353 2.6912870422535216
H 3.120994507042253 2.671350704225353 3.2183370422535216
H 3.4665445070422534 3.0664207042253535 1.4881370422535212
C 1.2973745070422538 4.282440704225354 0.8488370422535213
H 1.7592145070422538 3.7367207042253527 0.02653704225352116
H 0.23311450704225378 4.4484607042253534 0.6605570422535213
H 1.7921845070422535 5.251370704225354 0.9736770422535213
C 0.7724845070422537 4.194670704225353 3.2772470422535216
H -0.2956954929577462 4.278220704225354 3.057857042253521
H 0.9298945070422537 3.612620704225354 4.190337042253521
H 1.2046345070422537 5.193640704225353 3.3918370422535213
N 2.876084507042253 -2.324759295774647 -2.4576629577464786
N 1.4527845070422536 3.504690704225353 2.1388470422535213
C -3.593905492957746 -3.637819295774647 0.8297870422535213
H -2.8952554929577463 -1.8680692957746468 1.7595270422535212
H -5.022615492957747 -1.2402792957746467 1.1579970422535213
H -4.898275492957747 -1.7933092957746464 -0.48931295774647876
H -3.883675492957746 0.07871070422535364 -1.2758929577464788
H -3.8751654929577466 -4.038529295774646 -0.1505529577464788
H -4.4603554929577465 -3.7321892957746465 1.4932570422535212
H -2.7953554929577464 -4.271929295774647 1.2313670422535212
H -5.648775492957746 1.147700704225353 0.9733970422535213
H -6.189795492957747 0.5254307042253537 -0.5943629577464788
H -5.2178854929577465 2.002970704225354 -0.5139729577464787
C 3.6710445070422537 1.0263707042253536 -0.27764295774647874
O 2.7356545070422538 1.6631507042253526 -0.7327029577464788
O 3.650814507042253 0.3883007042253537 0.7790570422535212
O 4.756604507042254 0.8696707042253538 -0.8334829577464786
O -2.4962623646812756 -6.844129905422155 7.687045871907412
H -3.1033918423422264 -6.713853338155493 8.430947189473363
H -2.4600633409779165 -5.975281617600356 7.259548237139628
O 9.483592174526114 -4.835455776920367 0.1958657438420235
H 8.572054473484606 -5.062539561061629 0.43356162403360266
H 9.929921825366067 -5.693299765508128 0.13377324570475446
O 1.3169617052151066 -4.620860276358801 -5.267206730457791
H 2.026154616332846 -3.9741606846586874 -5.133818538269527
H 1.7846581366909327 -5.463288710699316 -5.369853334392692
O 10.022540386914697 -6.406250866684024 9.483943483216711
H 10.160784427942344 -7.331171931551326 9.230217320227784
H 9.404014248854267 -6.457620734545449 10.228086276981424
O 4.165428078488238 -7.27795394014694 6.226332584097334
H 4.336039463377718 -7.465838889740843 7.161510833396468
H 5.009887569396681 -7.46927796463916 5.791309331653567
O -1.221183385106083 6.67424974093167 2.043328822387138
H -0.790441333310616 6.208727687102828 2.7759391274702763
H -2.0734974042467185 6.2231622390330426 1.9482350649306615
O -8.602059390861083 -14.793397351033676 -0.3184461301241557
H -9.218341400429756 -15.193813303974798 0.3130844757947093
H -8.100063924448055 -14.1587742156729 0.21467296732558427
O 8.146006497443278 9.319881466537394 -1.5794840340758531
H 7.688807273079528 10.130268769588922 -1.8500549955518757
H 7.472226520506073 8.62946102283146 -1.6705998828147113
O 10.154579608459748 -1.318786222335838 -1.70547475858322
H 10.474173402272852 -2.023113738429244 -2.289212639767782
H 10.878277271429209 -0.6744492145986678 -1.698163303676702
O -9.646508006787375 -5.37960643653508 -8.901391632456768
H -9.255096346449275 -5.925988138246775 -9.59941119169992
H -10.59238069826187 -5.5853002168898875 -8.945853577377594
O 3.779919945534542 2.6682919768695696 -9.715484634857265
H 3.473313067282959 1.8844134675187432 -10.195582605782729
H 3.2159728192903434 2.695890068472014 -8.927979759671842
O 5.410419180839073 15.112542694264055 -1.58784310866773
H 5.214487315342342 15.969313443255002 -1.1797721042377842
H 4.539694743069763 14.766167592221633 -1.834470735782823
O 8.9845229014767 5.016030574281155 3.5073689607863976
H 8.552628021087443 5.482268376339286 4.238844511386384
H 9.10269608896216 5.699943950595102 2.8311592775088052
O 6.3465628715000255 -1.1985039872596799 -10.011837685466942
H 5.637283802694434 -1.4523971573572672 -10.621287287675418
H 6.69878666862631 -2.044591556297317 -9.697137563830605
O -1.915184494530588 4.658802623342599 6.452333941309959
H -1.6784275180031567 3.7772817604216775 6.1270118559841364
H -1.7140485471705706 4.620576370923023 7.399458552227417
O -3.4910201195527173 4.426869155758256 -6.063130560618097
H -4.2102133090808 4.535847306382683 -6.703327620688592
H -3.3584727990876546 5.317887667324567 -5.70608831636164
O 0.02792214223512457 10.757688204240843 0.7691211585936333
H 0.2006836337496034 10.595957174148609 -0.17054042828485505
H -0.3888054741483654 9.938069487975184 1.074940055966517
O 8.613379717471396 -6.298961762185032 6.408946883277396
H 8.815409774390696 -7.24514689863364 6.462658153648863
H 8.76965206384555 -5.9748189797998 7.308653699238172
O 8.927936385069742 3.2053896246515916 -12.186297117720414
H 9.77187279114667 2.906193120117537 -12.556729501661884
H 8.645000691619314 3.910294243811444 -12.78797711203536
O -7.2282202372598 4.24700856587695 2.2907056617753705
H -7.018165899137856 4.465352649924567 3.211124258337587
H -6.361019900643644 4.151730777819015 1.8689857742011509
O 6.266443752096016 10.125265397847249 -3.378636459418585
H 6.6852065071829925 9.706605109665901 -4.1456623227060465
H 6.936202048962256 10.059603214448845 -2.6814462086618858
O -3.245760691079086 -8.098139782143349 2.4414479068878188
H -2.339715509254357 -8.396285328671492 2.6122071481534967
H -3.49856998537173 -7.63893353340384 3.256419701576348
O 5.3635143216753205 1.0155895030254491 -6.914901496542084
H 5.996484118413201 0.7813275452856645 -6.219604489160684
H 5.878128364355703 1.566025740151178 -7.52412582323548
O 3.968369923346894 -8.480631651091928 -10.703704918521247
H 4.042732563927301 -8.645263879079229 -11.655720561299162
H 4.669030033392519 -9.026513704367165 -10.3163418609088
C -1.2994120219348013 1.5179003869268632 -6.243288353905062
O -0.11839354673871783 1.5618697555056538 -6.053340168411491
O -2.4804304971308855 1.4739310183480727 -6.433236539398633