146

C -5.3564454929577465 1.0091607042253532 -0.0734429577464788
C -4.079135492957747 0.16955070422535368 -0.19788295774647868
C -4.333545492957747 -1.2789292957746463 0.3017270422535212
C -3.1403854929577464 -2.1745492957746464 0.7330270422535212
C -2.905235492957746 0.902300704225353 0.41966704225352136
C -2.7423854929577463 1.056130704225354 1.8024770422535212
C -1.8861754929577463 1.3499307042253532 -0.4326129577464788
C -1.5304554929577463 1.5279207042253526 2.3254170422535214
H -3.5237954929577464 0.7301007042253529 2.484817042253521
C -0.6776454929577462 1.8010507042253527 0.08546704225352131
H -1.9759254929577463 1.2426607042253535 -1.5115229577464788
C -0.4680254929577463 1.8513207042253539 1.4698070422535212
H -1.3950654929577464 1.5446707042253527 3.404047042253521
H 0.1461845070422536 1.9972507042253538 -0.6030529577464789
C -1.8679654929577463 -2.0866092957746467 -0.08765295774647863
C -0.6628654929577462 -1.814079295774647 0.5787970422535212
C -1.8438954929577462 -2.213429295774647 -1.4808029577464787
C 0.5129345070422537 -1.5763292957746469 -0.13022295774647863
H -0.6401854929577462 -1.7032692957746463 1.6609470422535213
C -0.6547954929577462 -1.9962392957746466 -2.1933129577464787
H -2.7578654929577464 -2.4351492957746466 -2.026182957746479
C 0.5308845070422537 -1.645769295774647 -1.5261029577464789
H 1.4044045070422537 -1.2610992957746463 0.41551704225352126
H -0.6795654929577464 -2.0467992957746466 -3.2793129577464786
C 1.7843245070422535 -1.2521692957746469 -2.2771629577464787
H 1.4981245070422535 -0.9384492957746469 -3.290282957746479
H 2.241984507042254 -0.38631929577464685 -1.8135029577464787
C 0.9385645070422537 2.0647807042253534 1.9815670422535212
H 1.0508945070422537 1.5807407042253532 2.9609770422535213
H 1.6053245070422537 1.5496207042253536 1.3096170422535214
C 3.9676945070422533 -1.6881692957746468 -3.314052957746479
H 4.795084507042254 -2.398849295774647 -3.4044129577464783
H 3.548404507042253 -1.4816192957746468 -4.303802957746479
H 4.307714507042253 -0.7637192957746466 -2.851282957746479
C 2.344694507042253 -3.565079295774647 -3.101282957746479
H 1.6334345070422536 -4.047909295774646 -2.4251929577464786
H 1.8561845070422536 -3.293109295774647 -4.041792957746479
H 3.1808045070422537 -4.243519295774647 -3.298122957746479
C 3.5156645070422536 -2.648489295774647 -1.1110629577464786
H 3.9311845070422535 -1.748249295774647 -0.6771029577464787
H 2.767184507042254 -3.1044092957746465 -0.45972295774647876
H 4.319224507042254 -3.371819295774647 -1.2863129577464787
C 2.963994507042253 3.381090704225353 2.401027042253521
H 3.3337945070422537 4.369820704225353 2.6912870422535216
H 3.120994507042253 2.671350704225353 3.2183370422535216
H 3.4665445070422534 3.0664207042253535 1.4881370422535212
C 1.2973745070422538 4.282440704225354 0.8488370422535213
H 1.7592145070422538 3.7367207042253527 0.02653704225352116
H 0.23311450704225378 4.4484607042253534 0.6605570422535213
H 1.7921845070422535 5.251370704225354 0.9736770422535213
C 0.7724845070422537 4.194670704225353 3.2772470422535216
H -0.2956954929577462 4.278220704225354 3.057857042253521
H 0.9298945070422537 3.612620704225354 4.190337042253521
H 1.2046345070422537 5.193640704225353 3.3918370422535213
N 2.876084507042253 -2.324759295774647 -2.4576629577464786
N 1.4527845070422536 3.504690704225353 2.1388470422535213
C -3.593905492957746 -3.637819295774647 0.8297870422535213
H -2.8952554929577463 -1.8680692957746468 1.7595270422535212
H -5.022615492957747 -1.2402792957746467 1.1579970422535213
H -4.898275492957747 -1.7933092957746464 -0.48931295774647876
H -3.883675492957746 0.07871070422535364 -1.2758929577464788
H -3.8751654929577466 -4.038529295774646 -0.1505529577464788
H -4.4603554929577465 -3.7321892957746465 1.4932570422535212
H -2.7953554929577464 -4.271929295774647 1.2313670422535212
H -5.648775492957746 1.147700704225353 0.9733970422535213
H -6.189795492957747 0.5254307042253537 -0.5943629577464788
H -5.2178854929577465 2.002970704225354 -0.5139729577464787
C 3.6710445070422537 1.0263707042253536 -0.27764295774647874
O 2.7356545070422538 1.6631507042253526 -0.7327029577464788
O 3.650814507042253 0.3883007042253537 0.7790570422535212
O 4.756604507042254 0.8696707042253538 -0.8334829577464786
O 6.584024577798194 -3.230385365851445 -12.947159295100542
H 6.522114686159607 -2.708044226727405 -13.760973927922969
H 7.06578816925166 -2.653941545545581 -12.335131266101023
O 5.268100560119042 8.701693392538505 -5.2924533049456315
H 5.530614720702527 8.060053869648893 -4.615436026688172
H 5.002202534004115 9.482670781474265 -4.7841871325720735
O -2.8104163139369223 -8.69757024058984 -2.2860024564084607
H -3.379834015788624 -8.787369691343862 -3.06489070022923
H -2.3461086988689632 -9.546638127441389 -2.2363626900175295
O -5.379542881052188 -2.935049036914193 -11.38800168643792
H -5.884883562669977 -3.2439211135936645 -10.621062189052516
H -5.470651792801059 -1.9708902678019244 -11.35545973745122
O 4.721475199876701 11.383846011312535 -0.671352302094097
H 4.718201488726882 11.328915738875658 -1.638791863454557
H 5.629342896044051 11.149587306707115 -0.42668712297704353
O 6.840252012223819 -1.1031559008452962 -10.627075746334969
H 7.227401303009946 -1.2879955183081728 -9.758216091753185
H 7.426311095124234 -1.5626961110546151 -11.247010816201726
O -8.490759710882156 -5.715777731271478 6.135612730670485
H -8.789367097272832 -5.77665073921065 7.055447206322146
H -7.6206024013274005 -6.142074476964344 6.143312441061171
O -2.2609518445119163 9.080422550963876 -7.545556962496519
H -1.9825191258695307 9.957768490446593 -7.8483880714708025
H -2.846541907447473 9.266390434481918 -6.796249169402819
O 4.302819620590566 6.583580360902226 2.755645081044824
H 3.432911677830874 6.17267997817424 2.8713533499697217
H 4.823253901124136 5.905303112907476 2.2995200117949826
O 13.871334679236682 1.955688996469929 -1.6217120265590363
H 13.295851061977748 1.5451613417324905 -2.2844736789366866
H 14.325120295908299 1.2055990540825334 -1.2089098502914752
O 10.716575259197118 -10.164003925795672 1.5456372660492725
H 11.392706465908468 -10.536509579170279 0.959929586045833
H 10.138088062977818 -9.666258203749662 0.9485077120199765
O -4.111390663172199 -10.340738335066671 3.4075461071323145
H -3.7259929996675467 -10.453032540373911 2.5256016591541153
H -4.459709824816104 -11.218613479049916 3.624273903014807
O -1.2134663444712648 5.864803693465133 -6.941581021782886
H -0.7310346359925717 6.485543074132033 -7.508069878552024
H -2.144460983966315 6.0285165537073775 -7.154674956287798
O -1.1543681383016968 2.4301698061695096 5.730122056957767
H -1.3624758635163303 2.510175229133174 4.787117463171292
H -0.24057578207374541 2.7458248618876597 5.79575253614952
O 0.18712318406156647 8.63175403393328 10.032129766316897
H 0.015404842405749852 8.509391011313543 10.977913810765912
H -0.609512920974528 8.285259018545856 9.602858215006316
O -11.971904451623553 0.3835894183441235 -8.37805579688957
H -11.24086516175957 0.8839186248431905 -8.77076382927391
H -12.613451977571968 0.3013260536578466 -9.099589895238335
O 4.590027420233966 6.501723983044596 -0.6185646904087473
H 5.133704156640381 7.272589206258203 -0.840262166331017
H 4.609460802554726 5.962349991955608 -1.4233379415101435
O 8.474963884302111 5.66361205294182 -1.9082463638698957
H 8.495470456736157 5.494161935955965 -0.9543944386527328
H 9.40440984565961 5.606223310490844 -2.1761991236170752
O -3.559791182143628 9.529687167489842 -1.7112820727562408
H -3.1850101738685908 9.52424741556711 -2.6048574539275036
H -3.0685039323677303 10.229701467733983 -1.2556739495172702
O 3.994501981805544 8.908309545410894 7.2334063851177515
H 4.209373854102003 8.955649341378159 8.177099332592508
H 4.237799641625764 9.78263501409343 6.893813735257556
O 8.319023386202351 -4.241278104317629 6.379964288448208
H 9.126120344811188 -3.974513406132945 6.845150758701591
H 8.549373912354868 -4.154139375430921 5.442783718158113
O 1.684442625980418 -7.875301529782235 3.5683111292069567
H 1.6622167228011855 -7.865385841222372 2.599613526624885
H 1.914332891778789 -8.790690939649966 3.7877983459034144
O 5.957480717421839 -13.619983279135091 -4.340859494532729
H 6.904081743384779 -13.767577359656968 -4.48622056889864
H 5.584009213047761 -14.513420670984704 -4.305495578381838
O 5.918743376460335 -0.21806521101694165 -6.466890100111028
H 5.060302162480817 0.2124146064972059 -6.337533361769504
H 6.484775234888401 0.17999487971015793 -5.788570084399561
C -5.231728766639377 -10.591292518138065 -6.185439147891002
O -5.529286856571085 -10.548211563863196 -5.026810013182678
O -4.93417067670767 -10.634373472412936 -7.344068282599327