146

C -5.3564454929577465 1.0091607042253532 -0.0734429577464788
C -4.079135492957747 0.16955070422535368 -0.19788295774647868
C -4.333545492957747 -1.2789292957746463 0.3017270422535212
C -3.1403854929577464 -2.1745492957746464 0.7330270422535212
C -2.905235492957746 0.902300704225353 0.41966704225352136
C -2.7423854929577463 1.056130704225354 1.8024770422535212
C -1.8861754929577463 1.3499307042253532 -0.4326129577464788
C -1.5304554929577463 1.5279207042253526 2.3254170422535214
H -3.5237954929577464 0.7301007042253529 2.484817042253521
C -0.6776454929577462 1.8010507042253527 0.08546704225352131
H -1.9759254929577463 1.2426607042253535 -1.5115229577464788
C -0.4680254929577463 1.8513207042253539 1.4698070422535212
H -1.3950654929577464 1.5446707042253527 3.404047042253521
H 0.1461845070422536 1.9972507042253538 -0.6030529577464789
C -1.8679654929577463 -2.0866092957746467 -0.08765295774647863
C -0.6628654929577462 -1.814079295774647 0.5787970422535212
C -1.8438954929577462 -2.213429295774647 -1.4808029577464787
C 0.5129345070422537 -1.5763292957746469 -0.13022295774647863
H -0.6401854929577462 -1.7032692957746463 1.6609470422535213
C -0.6547954929577462 -1.9962392957746466 -2.1933129577464787
H -2.7578654929577464 -2.4351492957746466 -2.026182957746479
C 0.5308845070422537 -1.645769295774647 -1.5261029577464789
H 1.4044045070422537 -1.2610992957746463 0.41551704225352126
H -0.6795654929577464 -2.0467992957746466 -3.2793129577464786
C 1.7843245070422535 -1.2521692957746469 -2.2771629577464787
H 1.4981245070422535 -0.9384492957746469 -3.290282957746479
H 2.241984507042254 -0.38631929577464685 -1.8135029577464787
C 0.9385645070422537 2.0647807042253534 1.9815670422535212
H 1.0508945070422537 1.5807407042253532 2.9609770422535213
H 1.6053245070422537 1.5496207042253536 1.3096170422535214
C 3.9676945070422533 -1.6881692957746468 -3.314052957746479
H 4.795084507042254 -2.398849295774647 -3.4044129577464783
H 3.548404507042253 -1.4816192957746468 -4.303802957746479
H 4.307714507042253 -0.7637192957746466 -2.851282957746479
C 2.344694507042253 -3.565079295774647 -3.101282957746479
H 1.6334345070422536 -4.047909295774646 -2.4251929577464786
H 1.8561845070422536 -3.293109295774647 -4.041792957746479
H 3.1808045070422537 -4.243519295774647 -3.298122957746479
C 3.5156645070422536 -2.648489295774647 -1.1110629577464786
H 3.9311845070422535 -1.748249295774647 -0.6771029577464787
H 2.767184507042254 -3.1044092957746465 -0.45972295774647876
H 4.319224507042254 -3.371819295774647 -1.2863129577464787
C 2.963994507042253 3.381090704225353 2.401027042253521
H 3.3337945070422537 4.369820704225353 2.6912870422535216
H 3.120994507042253 2.671350704225353 3.2183370422535216
H 3.4665445070422534 3.0664207042253535 1.4881370422535212
C 1.2973745070422538 4.282440704225354 0.8488370422535213
H 1.7592145070422538 3.7367207042253527 0.02653704225352116
H 0.23311450704225378 4.4484607042253534 0.6605570422535213
H 1.7921845070422535 5.251370704225354 0.9736770422535213
C 0.7724845070422537 4.194670704225353 3.2772470422535216
H -0.2956954929577462 4.278220704225354 3.057857042253521
H 0.9298945070422537 3.612620704225354 4.190337042253521
H 1.2046345070422537 5.193640704225353 3.3918370422535213
N 2.876084507042253 -2.324759295774647 -2.4576629577464786
N 1.4527845070422536 3.504690704225353 2.1388470422535213
C -3.593905492957746 -3.637819295774647 0.8297870422535213
H -2.8952554929577463 -1.8680692957746468 1.7595270422535212
H -5.022615492957747 -1.2402792957746467 1.1579970422535213
H -4.898275492957747 -1.7933092957746464 -0.48931295774647876
H -3.883675492957746 0.07871070422535364 -1.2758929577464788
H -3.8751654929577466 -4.038529295774646 -0.1505529577464788
H -4.4603554929577465 -3.7321892957746465 1.4932570422535212
H -2.7953554929577464 -4.271929295774647 1.2313670422535212
H -5.648775492957746 1.147700704225353 0.9733970422535213
H -6.189795492957747 0.5254307042253537 -0.5943629577464788
H -5.2178854929577465 2.002970704225354 -0.5139729577464787
C 3.6710445070422537 1.0263707042253536 -0.27764295774647874
O 2.7356545070422538 1.6631507042253526 -0.7327029577464788
O 3.650814507042253 0.3883007042253537 0.7790570422535212
O 4.756604507042254 0.8696707042253538 -0.8334829577464786
O -1.2201868221957222 -5.857950761963048 -4.830568338980198
H -1.6508411100845328 -5.4205377639625745 -4.080785630188364
H -1.700322223471042 -6.694802681604622 -4.920628348609341
O 5.54243250417239 -7.951378931982889 5.795809167318619
H 6.133777659544274 -8.382409704649282 5.160599959944532
H 4.877243108401699 -8.627930888931353 5.992691014128903
O 7.640055036190847 -5.239779039035359 6.9948740275507655
H 8.137107219502498 -5.1126445632990585 7.816910102820201
H 7.229212014246244 -6.110797110193934 7.102100308539251
O 0.07097671633369118 12.346457634766757 6.026096588122765
H -0.6769992889442764 11.923741537245638 5.577977905935856
H 0.15531579553800579 11.853758058069344 6.856214646678992
O -1.8150429779081572 10.701721172121442 -5.704931990205935
H -1.4419591365606603 10.453794329815498 -4.845683431819248
H -1.9566292348245757 9.853793122934931 -6.152071006122859
O -2.5776935529352167 3.64785736461057 -2.621612588024277
H -2.8951952486009156 4.487351782803131 -2.2563604121608885
H -1.8888985467919905 3.911627072922566 -3.250062207953478
O 7.043391779500117 -3.2824104806880428 9.413929389718849
H 6.377256086384108 -2.790001351640542 9.916685637703434
H 6.895892991503359 -3.006248866188419 8.496901137964059
O 3.572018361517988 -9.24717853456871 -1.5726798987494184
H 3.340279023426652 -8.732187168281321 -0.7852485501669266
H 2.771211152006996 -9.759000435415672 -1.7616457668542638
O 10.517163669179045 2.989118208531383 0.8409507256611126
H 10.859334317873106 3.6381092217331545 0.2079441942132722
H 11.059659044576048 2.2015039338901796 0.6849876968553206
O 3.555528936766904 8.178252450394325 7.322560002001414
H 3.697364986814845 8.209597015985475 6.364506031697706
H 3.60412085725977 7.23421091046275 7.535600703386006
O -3.51803163749577 10.517058053026792 3.6674722380191023
H -3.647398159883062 11.477271707144235 3.652592781313805
H -3.937488592586883 10.211663759642569 2.8490883838931533
O -8.676021210803 7.285168360922697 -10.993425251567452
H -9.537198973851513 6.996940039746537 -11.331455800782653
H -8.288051463204672 6.478253772198698 -10.622844267499367
O 7.098718337606865 2.4347967471481238 -4.042535892159256
H 8.008744809674239 2.421301128740154 -3.709914417626422
H 7.201921651204106 2.4846266713713727 -5.004735455147337
O -5.293561724394468 9.032898337993 -0.9276691336882603
H -4.8874292330319165 8.915293952517569 -0.05577867905729317
H -4.563293768151333 9.337887093207147 -1.4868225255025243
O -6.815989128856659 6.550205496526499 8.354257848556246
H -7.178960325975501 6.474177051815188 9.249489071513143
H -7.232150898587447 5.82115059731345 7.870263758046882
O -13.340301393170915 1.466785253512459 -3.126876309388461
H -13.306262254070115 0.532688892701235 -2.8713911187638272
H -12.409221385727127 1.731722379256433 -3.1700073126343957
O -13.414037687496185 -0.11801170381741932 4.841165121981719
H -13.983303269091499 0.2277793485911257 5.544963816627527
H -13.963534688917983 -0.7843485111617416 4.4018358048326975
O -5.563660280883185 9.706722171905163 6.770737361351423
H -4.720314174748721 10.178209893963793 6.697021487105758
H -5.318102818609647 8.77319720170858 6.6859163318761095
O 9.193780976498157 1.4488572741138848 2.394322652600539
H 8.926666924292633 1.1761518557402533 1.5036772715402609
H 9.167403954948373 0.6278117243991566 2.9082782949742767
O -5.3800208605058675 -9.705380198621281 -2.049829926258689
H -4.986692893880669 -9.849847679439103 -1.1761082231079436
H -5.257502124003553 -8.757224667998067 -2.207792558721202
O -2.781709102161511 6.161262760807 0.8660274889055581
H -2.058235348740672 5.538699192662123 0.6987920601535045
H -3.3552839325518504 5.691432565448527 1.4899132523046843
O -9.538106132438388 6.182655430647311 -2.165984679361368
H -10.37008628551565 6.250737649636555 -2.658063121525859
H -8.903750129120763 5.85787817298216 -2.822547043694258
O 7.628980404991889 -1.2537320146407334 -9.095811198220938
H 6.79342182892995 -0.7936189196835928 -9.266413550837505
H 7.523529210684778 -1.6056997856733437 -8.199172654506953
O -1.4433161936318384 -8.18639805129797 5.640731549553644
H -2.1046886602842654 -8.89213300024533 5.581638410456526
H -1.8430279179899367 -7.449720661942694 5.154420017998646
C 5.08709090709199 -10.446371133363463 0.02165420052881295
O 4.7924941102528855 -9.891120136312576 1.0403432182698191
O 5.381687703931094 -11.00162213041435 -0.9970348172121932