146

C -5.3564454929577465 1.0091607042253532 -0.0734429577464788
C -4.079135492957747 0.16955070422535368 -0.19788295774647868
C -4.333545492957747 -1.2789292957746463 0.3017270422535212
C -3.1403854929577464 -2.1745492957746464 0.7330270422535212
C -2.905235492957746 0.902300704225353 0.41966704225352136
C -2.7423854929577463 1.056130704225354 1.8024770422535212
C -1.8861754929577463 1.3499307042253532 -0.4326129577464788
C -1.5304554929577463 1.5279207042253526 2.3254170422535214
H -3.5237954929577464 0.7301007042253529 2.484817042253521
C -0.6776454929577462 1.8010507042253527 0.08546704225352131
H -1.9759254929577463 1.2426607042253535 -1.5115229577464788
C -0.4680254929577463 1.8513207042253539 1.4698070422535212
H -1.3950654929577464 1.5446707042253527 3.404047042253521
H 0.1461845070422536 1.9972507042253538 -0.6030529577464789
C -1.8679654929577463 -2.0866092957746467 -0.08765295774647863
C -0.6628654929577462 -1.814079295774647 0.5787970422535212
C -1.8438954929577462 -2.213429295774647 -1.4808029577464787
C 0.5129345070422537 -1.5763292957746469 -0.13022295774647863
H -0.6401854929577462 -1.7032692957746463 1.6609470422535213
C -0.6547954929577462 -1.9962392957746466 -2.1933129577464787
H -2.7578654929577464 -2.4351492957746466 -2.026182957746479
C 0.5308845070422537 -1.645769295774647 -1.5261029577464789
H 1.4044045070422537 -1.2610992957746463 0.41551704225352126
H -0.6795654929577464 -2.0467992957746466 -3.2793129577464786
C 1.7843245070422535 -1.2521692957746469 -2.2771629577464787
H 1.4981245070422535 -0.9384492957746469 -3.290282957746479
H 2.241984507042254 -0.38631929577464685 -1.8135029577464787
C 0.9385645070422537 2.0647807042253534 1.9815670422535212
H 1.0508945070422537 1.5807407042253532 2.9609770422535213
H 1.6053245070422537 1.5496207042253536 1.3096170422535214
C 3.9676945070422533 -1.6881692957746468 -3.314052957746479
H 4.795084507042254 -2.398849295774647 -3.4044129577464783
H 3.548404507042253 -1.4816192957746468 -4.303802957746479
H 4.307714507042253 -0.7637192957746466 -2.851282957746479
C 2.344694507042253 -3.565079295774647 -3.101282957746479
H 1.6334345070422536 -4.047909295774646 -2.4251929577464786
H 1.8561845070422536 -3.293109295774647 -4.041792957746479
H 3.1808045070422537 -4.243519295774647 -3.298122957746479
C 3.5156645070422536 -2.648489295774647 -1.1110629577464786
H 3.9311845070422535 -1.748249295774647 -0.6771029577464787
H 2.767184507042254 -3.1044092957746465 -0.45972295774647876
H 4.319224507042254 -3.371819295774647 -1.2863129577464787
C 2.963994507042253 3.381090704225353 2.401027042253521
H 3.3337945070422537 4.369820704225353 2.6912870422535216
H 3.120994507042253 2.671350704225353 3.2183370422535216
H 3.4665445070422534 3.0664207042253535 1.4881370422535212
C 1.2973745070422538 4.282440704225354 0.8488370422535213
H 1.7592145070422538 3.7367207042253527 0.02653704225352116
H 0.23311450704225378 4.4484607042253534 0.6605570422535213
H 1.7921845070422535 5.251370704225354 0.9736770422535213
C 0.7724845070422537 4.194670704225353 3.2772470422535216
H -0.2956954929577462 4.278220704225354 3.057857042253521
H 0.9298945070422537 3.612620704225354 4.190337042253521
H 1.2046345070422537 5.193640704225353 3.3918370422535213
N 2.876084507042253 -2.324759295774647 -2.4576629577464786
N 1.4527845070422536 3.504690704225353 2.1388470422535213
C -3.593905492957746 -3.637819295774647 0.8297870422535213
H -2.8952554929577463 -1.8680692957746468 1.7595270422535212
H -5.022615492957747 -1.2402792957746467 1.1579970422535213
H -4.898275492957747 -1.7933092957746464 -0.48931295774647876
H -3.883675492957746 0.07871070422535364 -1.2758929577464788
H -3.8751654929577466 -4.038529295774646 -0.1505529577464788
H -4.4603554929577465 -3.7321892957746465 1.4932570422535212
H -2.7953554929577464 -4.271929295774647 1.2313670422535212
H -5.648775492957746 1.147700704225353 0.9733970422535213
H -6.189795492957747 0.5254307042253537 -0.5943629577464788
H -5.2178854929577465 2.002970704225354 -0.5139729577464787
C 3.6710445070422537 1.0263707042253536 -0.27764295774647874
O 2.7356545070422538 1.6631507042253526 -0.7327029577464788
O 3.650814507042253 0.3883007042253537 0.7790570422535212
O 4.756604507042254 0.8696707042253538 -0.8334829577464786
O -1.9972895796452605 5.9119743792242305 -6.074997019045981
H -1.3723243707666948 5.233811543716447 -5.777539436981885
H -2.5057124853041697 6.12716516821499 -5.278654744873069
O 8.777330321251455 -1.0646723882597289 -8.327202982847087
H 7.911204636699421 -1.4988800437467023 -8.343245656432734
H 9.248797124946202 -1.509397015152623 -7.606855147736274
O -9.387212672770637 -2.685454765493943 -5.986768137878803
H -9.873969290862082 -2.811849206520348 -6.8150554050281915
H -10.082701781349105 -2.5827685080419864 -5.319900552312344
O -4.552952634468412 5.110828070429745 1.0542680196643868
H -4.764717326244224 6.026110110827402 1.2917166640963906
H -5.337954866480342 4.611244722921277 1.324730436514716
O -2.1284295327775995 -0.7610661337200645 5.056286026185334
H -1.8091928579101126 -0.010716726192483095 4.532806256812572
H -1.422387480545803 -0.912998510303836 5.702337972801022
O 2.0950050152292032 -5.399828055735242 -8.389715114416967
H 2.471910398538849 -4.571593934790473 -8.722788574535084
H 1.2782936277676638 -5.507223909599525 -8.9000195181442
O 5.525918398011241 3.3531861137633134 -14.389927519526456
H 6.280630389132298 3.153119097623275 -14.963818063455268
H 5.630190799337327 4.294690126067169 -14.185821161376028
O -6.3234703818319336 -1.8287983738718432 -9.181308442721313
H -5.4386742041789455 -2.0809006108545116 -8.877092166005228
H -6.2335630806900175 -0.8919574230119978 -9.411976286803224
O -6.771242101097861 -4.270990830958197 9.255301551286525
H -6.763189852112008 -4.296068890881414 10.22394679547903
H -7.693703016804695 -4.4568239526968005 9.024014166939274
O 0.4435714383888284 0.29476607109408093 11.713767782667524
H -0.13014108414630332 0.653370869612035 12.407470814855127
H 0.6908122803121974 -0.581860522110822 12.044463604339025
O -3.392521555001408 -1.400539936145406 8.249644411238148
H -3.0883742836367727 -1.6735969286422105 9.128223760568673
H -3.203616815811476 -2.16713218361709 7.687849724606194
O -9.136697289796444 4.352506326575208 -0.9838187607182327
H -9.320278008924591 5.274384547158878 -1.2192036006673637
H -9.505564724228433 3.844552255545475 -1.7219795980971089
O 0.6373913755832428 12.977518916666572 3.0055966093868536
H 0.9466929253081107 13.241358426509198 3.885192324067068
H 0.7668043828282372 13.770752018276353 2.4643060549095623
O 1.0632486314171414 7.325711878077552 4.226769629773774
H 0.7845362969863183 7.538795397524451 5.13003161019598
H 1.7405319421028964 7.9896075932614945 4.028044340172918
O 11.815829106350183 2.5801784389771085 -3.5287865330303747
H 12.065243776106211 2.6887002095324495 -2.59874206918683
H 11.554036346185992 3.4708921954907237 -3.8063752557534363
O 5.247905663636614 -1.517660743741312 -8.56875609097891
H 5.635880055987988 -2.209628427008006 -8.012317457260771
H 6.0143545637837175 -1.0922255289773821 -8.981700283094582
O -7.307414475880115 -11.305422532077039 2.1454458682809388
H -7.617637975606501 -11.331463515216251 3.063079021733155
H -7.753229808000794 -10.531537478179661 1.7695302430398696
O -9.7377250535188 4.019959416691568 -3.860634005526007
H -9.852175611927176 4.080284412130142 -2.9003062898448717
H -9.389402746879044 3.126402952570546 -3.9991632819432956
O 9.355614117643922 6.251564525250494 -2.894138619044383
H 9.216964583182001 6.600132664895587 -3.7875835896597274
H 8.523626707277387 6.443900062605359 -2.4361365073003403
O -5.3497042663331635 1.007498546326861 -6.301359877682099
H -5.511734208511134 0.9353581377757911 -5.348726991313017
H -4.3948621381728445 0.8668351616031993 -6.387686390343947
O 0.6992399052386151 7.231215841160256 -0.29162165064059
H 0.003589643601318304 7.371992774154721 -0.9513336525934368
H 0.24741432327959867 6.768238884327586 0.4298129792666212
O 5.3112719546880784 3.2690572373150273 6.76129962523175
H 4.574957658206594 3.864948295669456 6.557038859860097
H 5.403395097365589 2.7284371042096347 5.962422198736092
O -7.870734833608218 7.426146626634387 4.085921435835278
H -7.732497553729542 7.70198755369763 5.004490755107719
H -7.26765085738071 7.990196960286963 3.5788722439179264
O -4.616760161712735 -6.487252748256472 -11.705904193625479
H -4.081271672084919 -5.680945183559077 -11.660214528624744
H -5.2361576473319635 -6.399111751065915 -10.965944827360794
C 6.3937535850535685 1.7743822443501431 -2.9845307356093236
O 7.238721288535833 1.621271703524289 -2.1506212683049153
O 5.548785881571304 1.9274927851759973 -3.8184402029137314