146

C -5.3564454929577465 1.0091607042253532 -0.0734429577464788
C -4.079135492957747 0.16955070422535368 -0.19788295774647868
C -4.333545492957747 -1.2789292957746463 0.3017270422535212
C -3.1403854929577464 -2.1745492957746464 0.7330270422535212
C -2.905235492957746 0.902300704225353 0.41966704225352136
C -2.7423854929577463 1.056130704225354 1.8024770422535212
C -1.8861754929577463 1.3499307042253532 -0.4326129577464788
C -1.5304554929577463 1.5279207042253526 2.3254170422535214
H -3.5237954929577464 0.7301007042253529 2.484817042253521
C -0.6776454929577462 1.8010507042253527 0.08546704225352131
H -1.9759254929577463 1.2426607042253535 -1.5115229577464788
C -0.4680254929577463 1.8513207042253539 1.4698070422535212
H -1.3950654929577464 1.5446707042253527 3.404047042253521
H 0.1461845070422536 1.9972507042253538 -0.6030529577464789
C -1.8679654929577463 -2.0866092957746467 -0.08765295774647863
C -0.6628654929577462 -1.814079295774647 0.5787970422535212
C -1.8438954929577462 -2.213429295774647 -1.4808029577464787
C 0.5129345070422537 -1.5763292957746469 -0.13022295774647863
H -0.6401854929577462 -1.7032692957746463 1.6609470422535213
C -0.6547954929577462 -1.9962392957746466 -2.1933129577464787
H -2.7578654929577464 -2.4351492957746466 -2.026182957746479
C 0.5308845070422537 -1.645769295774647 -1.5261029577464789
H 1.4044045070422537 -1.2610992957746463 0.41551704225352126
H -0.6795654929577464 -2.0467992957746466 -3.2793129577464786
C 1.7843245070422535 -1.2521692957746469 -2.2771629577464787
H 1.4981245070422535 -0.9384492957746469 -3.290282957746479
H 2.241984507042254 -0.38631929577464685 -1.8135029577464787
C 0.9385645070422537 2.0647807042253534 1.9815670422535212
H 1.0508945070422537 1.5807407042253532 2.9609770422535213
H 1.6053245070422537 1.5496207042253536 1.3096170422535214
C 3.9676945070422533 -1.6881692957746468 -3.314052957746479
H 4.795084507042254 -2.398849295774647 -3.4044129577464783
H 3.548404507042253 -1.4816192957746468 -4.303802957746479
H 4.307714507042253 -0.7637192957746466 -2.851282957746479
C 2.344694507042253 -3.565079295774647 -3.101282957746479
H 1.6334345070422536 -4.047909295774646 -2.4251929577464786
H 1.8561845070422536 -3.293109295774647 -4.041792957746479
H 3.1808045070422537 -4.243519295774647 -3.298122957746479
C 3.5156645070422536 -2.648489295774647 -1.1110629577464786
H 3.9311845070422535 -1.748249295774647 -0.6771029577464787
H 2.767184507042254 -3.1044092957746465 -0.45972295774647876
H 4.319224507042254 -3.371819295774647 -1.2863129577464787
C 2.963994507042253 3.381090704225353 2.401027042253521
H 3.3337945070422537 4.369820704225353 2.6912870422535216
H 3.120994507042253 2.671350704225353 3.2183370422535216
H 3.4665445070422534 3.0664207042253535 1.4881370422535212
C 1.2973745070422538 4.282440704225354 0.8488370422535213
H 1.7592145070422538 3.7367207042253527 0.02653704225352116
H 0.23311450704225378 4.4484607042253534 0.6605570422535213
H 1.7921845070422535 5.251370704225354 0.9736770422535213
C 0.7724845070422537 4.194670704225353 3.2772470422535216
H -0.2956954929577462 4.278220704225354 3.057857042253521
H 0.9298945070422537 3.612620704225354 4.190337042253521
H 1.2046345070422537 5.193640704225353 3.3918370422535213
N 2.876084507042253 -2.324759295774647 -2.4576629577464786
N 1.4527845070422536 3.504690704225353 2.1388470422535213
C -3.593905492957746 -3.637819295774647 0.8297870422535213
H -2.8952554929577463 -1.8680692957746468 1.7595270422535212
H -5.022615492957747 -1.2402792957746467 1.1579970422535213
H -4.898275492957747 -1.7933092957746464 -0.48931295774647876
H -3.883675492957746 0.07871070422535364 -1.2758929577464788
H -3.8751654929577466 -4.038529295774646 -0.1505529577464788
H -4.4603554929577465 -3.7321892957746465 1.4932570422535212
H -2.7953554929577464 -4.271929295774647 1.2313670422535212
H -5.648775492957746 1.147700704225353 0.9733970422535213
H -6.189795492957747 0.5254307042253537 -0.5943629577464788
H -5.2178854929577465 2.002970704225354 -0.5139729577464787
C 3.6710445070422537 1.0263707042253536 -0.27764295774647874
O 2.7356545070422538 1.6631507042253526 -0.7327029577464788
O 3.650814507042253 0.3883007042253537 0.7790570422535212
O 4.756604507042254 0.8696707042253538 -0.8334829577464786
O 3.6222243415272892 -12.74741394460776 -1.343908169786353
H 4.454192691434247 -13.244183923262279 -1.3478591140643676
H 3.790177293588624 -12.004811179136203 -1.9433202842016994
O 2.9828305150132017 -1.7698429736192658 4.937389689764807
H 3.0144935055100617 -0.9976318102314976 5.521902077205915
H 2.3361214577935674 -1.523601855729532 4.259086917051539
O -3.3554123626963293 4.9592254827292015 6.517226791797844
H -3.72105729781648 5.855051767453218 6.569823425896867
H -2.9735810154144406 4.810344350236316 7.395293517577004
O 3.3130783197263454 -4.439326496781538 -10.803133976990491
H 3.654596790000773 -4.397099478533322 -11.70897577901294
H 3.9137885717516294 -5.0534944714783645 -10.35490765439384
O -5.1090353293940645 1.820724901483658 3.7424870688450382
H -4.803240729721982 2.5571378629102064 4.293080357901827
H -4.805803197822259 1.0321038684832398 4.216922612403668
O -0.6958025356874207 11.8509312463501 -7.407180859457078
H -0.5032332195830285 12.00187081955918 -8.344785072669962
H 0.174758396338901 11.876321592493488 -6.982397457883781
O 3.473285151494533 -8.123293279206173 -5.191795721575142
H 3.4225207585528454 -8.232736661656954 -4.230332004450571
H 3.7789499576214407 -7.21110165794425 -5.307715593447665
O -4.831371555922857 -12.667955466393824 -2.5234531472300104
H -4.591381841746938 -13.369849964927425 -1.8999818913424384
H -4.419580753740193 -11.873594657956195 -2.151456930103987
O 1.9786043214556073 4.8286965514016185 -4.397616764353168
H 2.4435202857391416 3.978634745132669 -4.382939278973075
H 1.2602991675633848 4.713701440630842 -3.7574794551056234
O 4.666380802989762 4.597820411780503 10.551898513088386
H 4.654565458839711 3.671462552225087 10.267840648239467
H 4.178203172297149 5.062389909531142 9.855608539764724
O 1.1194423327657588 -2.2433042234537695 -10.891584129541306
H 0.27569861354021263 -2.4103029988724223 -11.337874732373265
H 1.7850664214450722 -2.4454854205643106 -11.566142711433777
O 9.881772492667118 1.375754267349436 7.607521446970231
H 10.169130870447816 1.6429981380280814 8.493508598798032
H 10.677260979259824 1.4758513338932815 7.063333437852277
O 8.933020680129804 -3.1990004859119794 3.075744341639517
H 8.108097961692014 -3.688616999320764 2.938830006003563
H 8.65236288327921 -2.272118998993441 3.108666288341516
O -0.03778468714135541 6.142231881624644 -1.2696807234770144
H 0.19395669730673615 5.877609194887527 -0.3667753456559984
H 0.5925801955039864 6.84877495582879 -1.4755907604389826
O -1.8183507052909298 1.6208065174987771 10.82848138780306
H -1.8221417242757252 1.8660622260102278 11.765926118183259
H -1.840241290396524 2.4709667921630216 10.364035207964587
O 1.594743945558381 -5.121418112579796 1.379612474116204
H 0.959606428233618 -4.468922188282021 1.7109985929584526
H 2.319579638904873 -5.08967326401432 2.021926592395154
O -5.473722914063611 -7.431951559883621 -0.5950490272039548
H -5.495035063313599 -7.518075504961037 -1.5599820897936088
H -5.9713020034923545 -8.20157731075435 -0.28032184747534267
O -2.6826560767032817 -2.6282126059024082 -9.251001072790284
H -3.275919083054834 -1.911646701533791 -8.979819091657495
H -3.2633258426770198 -3.4013322596142275 -9.314802077708073
O -4.604931500620908 -10.263798127854683 -4.193636189464661
H -4.491918799449559 -9.904688398361454 -3.3007556328070224
H -3.7047275912244704 -10.493054069036821 -4.469383499950301
O -2.292671831871744 -2.1900989127994404 -4.71403242442736
H -1.5197956942720592 -1.8913283921081354 -4.211671987295971
H -2.0086085010735295 -2.1296493765821145 -5.638486761843186
O 4.09980302977043 1.099496821913614 -3.6605825354467987
H 5.0021743925795 0.7949094065235977 -3.481921440442501
H 3.8532928804769573 1.5842410781148133 -2.8585739964179084
O -3.025955347051747 -7.0501163300199226 8.829781049070796
H -3.136409981851211 -7.993739043149122 8.639141845814999
H -3.0919023871499447 -6.626481927061542 7.960789205131866
O 3.811257952308828 7.292827882186829 3.841362103920529
H 3.9016692174248293 6.984569766344634 4.755566727655033
H 2.8896590396057236 7.094155897647739 3.617427222841778
O -1.8652383889671185 1.870648012277605 -4.763752554470747
H -2.107529028289913 1.1101080666385663 -5.313153677589295
H -1.3059297782615997 1.4896770736672231 -4.070213106259626
C -4.755427969616068 -1.9600135847625657 10.994480375978197
O -4.70033412489724 -2.4400093490491646 9.89931509537393
O -4.810521814334897 -1.4800178204759666 12.089645656582462