146

C -5.3564454929577465 1.0091607042253532 -0.0734429577464788
C -4.079135492957747 0.16955070422535368 -0.19788295774647868
C -4.333545492957747 -1.2789292957746463 0.3017270422535212
C -3.1403854929577464 -2.1745492957746464 0.7330270422535212
C -2.905235492957746 0.902300704225353 0.41966704225352136
C -2.7423854929577463 1.056130704225354 1.8024770422535212
C -1.8861754929577463 1.3499307042253532 -0.4326129577464788
C -1.5304554929577463 1.5279207042253526 2.3254170422535214
H -3.5237954929577464 0.7301007042253529 2.484817042253521
C -0.6776454929577462 1.8010507042253527 0.08546704225352131
H -1.9759254929577463 1.2426607042253535 -1.5115229577464788
C -0.4680254929577463 1.8513207042253539 1.4698070422535212
H -1.3950654929577464 1.5446707042253527 3.404047042253521
H 0.1461845070422536 1.9972507042253538 -0.6030529577464789
C -1.8679654929577463 -2.0866092957746467 -0.08765295774647863
C -0.6628654929577462 -1.814079295774647 0.5787970422535212
C -1.8438954929577462 -2.213429295774647 -1.4808029577464787
C 0.5129345070422537 -1.5763292957746469 -0.13022295774647863
H -0.6401854929577462 -1.7032692957746463 1.6609470422535213
C -0.6547954929577462 -1.9962392957746466 -2.1933129577464787
H -2.7578654929577464 -2.4351492957746466 -2.026182957746479
C 0.5308845070422537 -1.645769295774647 -1.5261029577464789
H 1.4044045070422537 -1.2610992957746463 0.41551704225352126
H -0.6795654929577464 -2.0467992957746466 -3.2793129577464786
C 1.7843245070422535 -1.2521692957746469 -2.2771629577464787
H 1.4981245070422535 -0.9384492957746469 -3.290282957746479
H 2.241984507042254 -0.38631929577464685 -1.8135029577464787
C 0.9385645070422537 2.0647807042253534 1.9815670422535212
H 1.0508945070422537 1.5807407042253532 2.9609770422535213
H 1.6053245070422537 1.5496207042253536 1.3096170422535214
C 3.9676945070422533 -1.6881692957746468 -3.314052957746479
H 4.795084507042254 -2.398849295774647 -3.4044129577464783
H 3.548404507042253 -1.4816192957746468 -4.303802957746479
H 4.307714507042253 -0.7637192957746466 -2.851282957746479
C 2.344694507042253 -3.565079295774647 -3.101282957746479
H 1.6334345070422536 -4.047909295774646 -2.4251929577464786
H 1.8561845070422536 -3.293109295774647 -4.041792957746479
H 3.1808045070422537 -4.243519295774647 -3.298122957746479
C 3.5156645070422536 -2.648489295774647 -1.1110629577464786
H 3.9311845070422535 -1.748249295774647 -0.6771029577464787
H 2.767184507042254 -3.1044092957746465 -0.45972295774647876
H 4.319224507042254 -3.371819295774647 -1.2863129577464787
C 2.963994507042253 3.381090704225353 2.401027042253521
H 3.3337945070422537 4.369820704225353 2.6912870422535216
H 3.120994507042253 2.671350704225353 3.2183370422535216
H 3.4665445070422534 3.0664207042253535 1.4881370422535212
C 1.2973745070422538 4.282440704225354 0.8488370422535213
H 1.7592145070422538 3.7367207042253527 0.02653704225352116
H 0.23311450704225378 4.4484607042253534 0.6605570422535213
H 1.7921845070422535 5.251370704225354 0.9736770422535213
C 0.7724845070422537 4.194670704225353 3.2772470422535216
H -0.2956954929577462 4.278220704225354 3.057857042253521
H 0.9298945070422537 3.612620704225354 4.190337042253521
H 1.2046345070422537 5.193640704225353 3.3918370422535213
N 2.876084507042253 -2.324759295774647 -2.4576629577464786
N 1.4527845070422536 3.504690704225353 2.1388470422535213
C -3.593905492957746 -3.637819295774647 0.8297870422535213
H -2.8952554929577463 -1.8680692957746468 1.7595270422535212
H -5.022615492957747 -1.2402792957746467 1.1579970422535213
H -4.898275492957747 -1.7933092957746464 -0.48931295774647876
H -3.883675492957746 0.07871070422535364 -1.2758929577464788
H -3.8751654929577466 -4.038529295774646 -0.1505529577464788
H -4.4603554929577465 -3.7321892957746465 1.4932570422535212
H -2.7953554929577464 -4.271929295774647 1.2313670422535212
H -5.648775492957746 1.147700704225353 0.9733970422535213
H -6.189795492957747 0.5254307042253537 -0.5943629577464788
H -5.2178854929577465 2.002970704225354 -0.5139729577464787
C 3.6710445070422537 1.0263707042253536 -0.27764295774647874
O 2.7356545070422538 1.6631507042253526 -0.7327029577464788
O 3.650814507042253 0.3883007042253537 0.7790570422535212
O 4.756604507042254 0.8696707042253538 -0.8334829577464786
O 9.228315501259631 3.685911607768041 4.157271564249506
H 9.877022027279718 3.0253921682862037 3.8711574784977696
H 9.764398320632264 4.3705606370134 4.584861159336755
O 2.76876495574364 -2.3357182388640334 3.2667999091974154
H 3.1992856611190197 -3.1063628756500172 2.8671424021540894
H 1.973072464627166 -2.2070059384751746 2.7289629937579227
O -9.809531271413396 3.1518060803640697 -3.447009643022181
H -9.736781322871963 3.416074484118261 -4.376437968749578
H -10.716729732933045 3.3920476682220806 -3.205686467218767
O 4.688110555024066 -5.0966141485183325 7.722613671674154
H 4.748041224653624 -5.5618863065847295 6.8747354429962435
H 3.927875931546865 -5.506926914732626 8.1615313125227
O 10.826087709719351 -4.97034713183367 0.37291144130629394
H 10.13707586316018 -5.54606241201198 0.7373040158331801
H 11.497995586916847 -5.587366729641621 0.04612624460842074
O 4.342432470983486 -0.48315787881425987 -7.189540174099381
H 4.335017133916045 -0.7297186969840852 -6.2524595304941455
H 5.283622142353408 -0.46480403787703795 -7.419294571945055
O 4.253365282051349 -3.6490344294336987 -8.353993159685027
H 4.723888628377864 -3.907793111200683 -9.160602781541789
H 3.3825443807922424 -4.06355892290899 -8.447813981144499
O -4.803276994336749 -8.340862526029365 -6.369997196432924
H -4.908122713950232 -8.072358018374443 -5.444859335707443
H -5.6903875701623425 -8.237102137275752 -6.745803732145228
O 6.721672397829051 -4.561886226082225 5.409098692362059
H 6.486829043567674 -4.983673276895105 4.568913213062494
H 5.867421899587418 -4.40273966934137 5.83792313666468
O -0.5537726941550396 7.96429435113788 -5.536947862704059
H 0.2976599727546704 8.103704183901097 -5.978076720463276
H -1.1898401098152451 7.914414049155432 -6.266257222653241
O -4.681563530254506 7.049193312240275 6.188691026366509
H -4.526213331999474 7.772132306598891 5.562437975884616
H -4.789839460609624 6.269376938239121 5.623779803212441
O 1.279138821059643 11.51759868173955 8.919002488445184
H 0.8486038239370082 11.428747642501005 9.782548935359792
H 0.933782125325977 10.77068544640057 8.40732747841696
O -3.116400152177822 -8.18072259921286 -8.44770992226175
H -3.1578229078251345 -8.246286326438076 -9.413604797435502
H -2.437202557630595 -8.825265136093801 -8.198275582179349
O -8.46133707865752 10.862618459741366 4.316108307490579
H -7.64716465699006 11.295163093271917 4.614429886830839
H -8.846634267456153 10.502772868963856 5.129139162625766
O 5.67805473886062 6.319772161291234 0.8075074095661123
H 4.850595466758909 5.83052783291916 0.6853661099632851
H 6.2521410048278065 5.98891507264722 0.10045685237669932
O 10.38448681817478 -0.22657891237065453 3.0876512250636123
H 11.014800136247137 -0.15914077704929852 2.354763391991596
H 10.931515523693854 -0.4880814029411904 3.843520252781732
O 0.8469920251448491 -8.128562188269886 0.03311252198873449
H 0.2640884555144023 -8.07776435415102 0.8055180925673753
H 1.6883298511378555 -8.44479611503052 0.3952018899891083
O -4.149794602829013 7.968218195802742 -6.362576495077975
H -3.4069259853955964 7.358061406161928 -6.484323224757996
H -4.794745555545994 7.453364288863572 -5.85471266746379
O 6.419548693848927 5.245909956074227 -11.49153731199443
H 6.895541131911414 5.53477952128044 -10.698471785001292
H 5.567776731470342 4.932469764628437 -11.152123530906856
O -1.4144753967326935 7.874772385774161 -1.1672058601634188
H -1.7061007927591592 8.60574691420453 -0.6018756698512382
H -1.0595747287309862 7.223674170953643 -0.5434442271580879
O -5.804153704801963 -0.5669853057609915 3.5300634172487557
H -5.2480291131671155 0.22629295816408024 3.510003719768518
H -6.707615610502986 -0.22089377778921104 3.475849180066683
O -7.838516841079452 -9.077300324090793 2.9775422781897647
H -7.3935676818320815 -9.923354508594468 3.1362240965209227
H -7.843057187708164 -8.992661092441454 2.0122560356594463
O -11.247443621175991 -1.9730136855919094 -2.2864925337596964
H -10.824608725294919 -2.8052535627060182 -2.546405585887394
H -10.505633664813702 -1.361487652695906 -2.165183655138813
O 12.24965556420737 -0.8255786932895985 4.675100294078182
H 12.903064243902714 -1.1034252161302256 5.334513490749407
H 11.494647488921448 -1.4123418897646618 4.832051566183299
C -6.430947888663104 3.362021157059336 7.745894770200406
O -5.3572707200528455 3.2189137993604944 8.255361039032323
O -7.504625057273363 3.5051285147581783 7.236428501368491