146

C -5.3564454929577465 1.0091607042253532 -0.0734429577464788
C -4.079135492957747 0.16955070422535368 -0.19788295774647868
C -4.333545492957747 -1.2789292957746463 0.3017270422535212
C -3.1403854929577464 -2.1745492957746464 0.7330270422535212
C -2.905235492957746 0.902300704225353 0.41966704225352136
C -2.7423854929577463 1.056130704225354 1.8024770422535212
C -1.8861754929577463 1.3499307042253532 -0.4326129577464788
C -1.5304554929577463 1.5279207042253526 2.3254170422535214
H -3.5237954929577464 0.7301007042253529 2.484817042253521
C -0.6776454929577462 1.8010507042253527 0.08546704225352131
H -1.9759254929577463 1.2426607042253535 -1.5115229577464788
C -0.4680254929577463 1.8513207042253539 1.4698070422535212
H -1.3950654929577464 1.5446707042253527 3.404047042253521
H 0.1461845070422536 1.9972507042253538 -0.6030529577464789
C -1.8679654929577463 -2.0866092957746467 -0.08765295774647863
C -0.6628654929577462 -1.814079295774647 0.5787970422535212
C -1.8438954929577462 -2.213429295774647 -1.4808029577464787
C 0.5129345070422537 -1.5763292957746469 -0.13022295774647863
H -0.6401854929577462 -1.7032692957746463 1.6609470422535213
C -0.6547954929577462 -1.9962392957746466 -2.1933129577464787
H -2.7578654929577464 -2.4351492957746466 -2.026182957746479
C 0.5308845070422537 -1.645769295774647 -1.5261029577464789
H 1.4044045070422537 -1.2610992957746463 0.41551704225352126
H -0.6795654929577464 -2.0467992957746466 -3.2793129577464786
C 1.7843245070422535 -1.2521692957746469 -2.2771629577464787
H 1.4981245070422535 -0.9384492957746469 -3.290282957746479
H 2.241984507042254 -0.38631929577464685 -1.8135029577464787
C 0.9385645070422537 2.0647807042253534 1.9815670422535212
H 1.0508945070422537 1.5807407042253532 2.9609770422535213
H 1.6053245070422537 1.5496207042253536 1.3096170422535214
C 3.9676945070422533 -1.6881692957746468 -3.314052957746479
H 4.795084507042254 -2.398849295774647 -3.4044129577464783
H 3.548404507042253 -1.4816192957746468 -4.303802957746479
H 4.307714507042253 -0.7637192957746466 -2.851282957746479
C 2.344694507042253 -3.565079295774647 -3.101282957746479
H 1.6334345070422536 -4.047909295774646 -2.4251929577464786
H 1.8561845070422536 -3.293109295774647 -4.041792957746479
H 3.1808045070422537 -4.243519295774647 -3.298122957746479
C 3.5156645070422536 -2.648489295774647 -1.1110629577464786
H 3.9311845070422535 -1.748249295774647 -0.6771029577464787
H 2.767184507042254 -3.1044092957746465 -0.45972295774647876
H 4.319224507042254 -3.371819295774647 -1.2863129577464787
C 2.963994507042253 3.381090704225353 2.401027042253521
H 3.3337945070422537 4.369820704225353 2.6912870422535216
H 3.120994507042253 2.671350704225353 3.2183370422535216
H 3.4665445070422534 3.0664207042253535 1.4881370422535212
C 1.2973745070422538 4.282440704225354 0.8488370422535213
H 1.7592145070422538 3.7367207042253527 0.02653704225352116
H 0.23311450704225378 4.4484607042253534 0.6605570422535213
H 1.7921845070422535 5.251370704225354 0.9736770422535213
C 0.7724845070422537 4.194670704225353 3.2772470422535216
H -0.2956954929577462 4.278220704225354 3.057857042253521
H 0.9298945070422537 3.612620704225354 4.190337042253521
H 1.2046345070422537 5.193640704225353 3.3918370422535213
N 2.876084507042253 -2.324759295774647 -2.4576629577464786
N 1.4527845070422536 3.504690704225353 2.1388470422535213
C -3.593905492957746 -3.637819295774647 0.8297870422535213
H -2.8952554929577463 -1.8680692957746468 1.7595270422535212
H -5.022615492957747 -1.2402792957746467 1.1579970422535213
H -4.898275492957747 -1.7933092957746464 -0.48931295774647876
H -3.883675492957746 0.07871070422535364 -1.2758929577464788
H -3.8751654929577466 -4.038529295774646 -0.1505529577464788
H -4.4603554929577465 -3.7321892957746465 1.4932570422535212
H -2.7953554929577464 -4.271929295774647 1.2313670422535212
H -5.648775492957746 1.147700704225353 0.9733970422535213
H -6.189795492957747 0.5254307042253537 -0.5943629577464788
H -5.2178854929577465 2.002970704225354 -0.5139729577464787
C 3.6710445070422537 1.0263707042253536 -0.27764295774647874
O 2.7356545070422538 1.6631507042253526 -0.7327029577464788
O 3.650814507042253 0.3883007042253537 0.7790570422535212
O 4.756604507042254 0.8696707042253538 -0.8334829577464786
O 5.3575143713669995 2.542712474775609 -1.7360168221368064
H 5.745825415793463 2.9135010581089276 -0.9293584581771301
H 4.409513860279647 2.4982088764225496 -1.5403732558951664
O -4.466210373533127 0.9953690724348954 -4.466735878414492
H -4.543630262109792 1.2849282950581413 -5.388217823081125
H -4.35252718368919 1.8201533441879387 -3.970984951319334
O 5.673303837936208 -8.755673895460395 -0.33778586803911415
H 5.830381237209878 -8.557804004368773 0.597704139249478
H 4.7639162737041385 -9.08975767762974 -0.356870647615785
O -0.08006833021957482 -11.023390589662803 -0.6986779724129846
H -0.1343964610200321 -10.754491944048198 -1.6280376065107656
H -0.7977614831232183 -10.53274787598633 -0.27071978509626293
O -8.202094416450905 10.207077921798744 -0.8417601072373202
H -9.101551624594265 9.849549666286805 -0.7957423483876855
H -7.8955544826766815 10.188550771594521 0.07728937892052912
O 9.142626102865576 -4.054532692976884 0.04539464641375979
H 9.040384820890443 -5.016152914403571 -0.01625457826402421
H 9.437457128292047 -3.7932675291441362 -0.8399172336112539
O -5.175358308151614 7.015030042913317 2.285912190172679
H -4.9709402230866475 6.078594154908533 2.1435449500678483
H -4.780345294809132 7.4597530296421946 1.520962434525266
O -8.265821055112072 4.362921880302559 0.45027481228772936
H -8.91506285386341 3.6820884562857197 0.21807168484187356
H -8.779490870749976 5.184560639149759 0.45414970100275154
O -4.390371679035095 0.8870563141496477 -12.907694270680004
H -4.718247901788395 0.3071452886674695 -12.20401270777158
H -3.428293667819495 0.7769278313469161 -12.872486857951936
O 2.785917136845573 1.0782498120226927 -10.60318591561889
H 3.49991818317315 1.398077238695919 -11.174920364371726
H 3.2434536098916134 0.7755286670123696 -9.80444801837335
O 5.479180347359936 -1.917423598890871 -0.7156170675740279
H 5.508602819869336 -1.045010701907484 -0.2949064637280008
H 6.146559952288654 -2.4310519413170653 -0.2362921954030699
O 7.917738896847007 3.7296642011511656 4.272460511300483
H 7.932303864918025 3.850926688660156 3.31118499006413
H 8.832420553882152 3.8992874780270164 4.543656666371571
O -10.446209323763695 -3.844986971150587 -4.543452938934818
H -10.10982212878468 -4.554670843541821 -5.111044176730059
H -10.479046499656933 -4.245991604062072 -3.6619321232061797
O 2.821855405262431 -8.022125093794635 9.226851867488364
H 3.225166742376016 -8.902983209715371 9.206944535366206
H 2.1023135959327464 -8.108633100037284 9.870076473502845
O 7.135703196286649 -3.048316160349223 1.3387418581216413
H 7.549873350278688 -3.7510986912575244 1.8617400939621964
H 7.300742238556074 -2.2446412487777443 1.8543295764949235
O 7.649149013198147 -0.22127379916825873 -8.20506350693701
H 8.147381716125608 -0.728465864949368 -7.546665649223085
H 7.104307113021008 0.3793100459801595 -7.674584201913614
O -5.818293356667741 -11.544948038595685 0.9289774200111758
H -6.037034287284058 -11.80377545131834 0.02116238786178193
H -5.98838182834264 -12.345353524345477 1.4479985318023427
O 0.09205754903724617 -6.136006681707933 -4.2014105172575125
H 0.5092943079255208 -6.542711132366239 -4.975666504478234
H 0.575159850366265 -6.5123540144160055 -3.450453264203701
O 4.535485681786401 -5.833367970964134 9.55250185325169
H 4.439107223466455 -6.562819738643411 8.921963457671016
H 5.244475322914916 -5.290660216860376 9.175986346654534
O -0.5293459952160124 -8.423242990394375 9.365936060555622
H -0.7491438206354997 -8.582952716012437 8.435802158160989
H 0.18222098052974234 -7.76653894005241 9.328866213071452
O -0.5424880353916923 3.294132403434635 10.040128562559019
H -0.870897650446917 3.681272587589193 10.865499363746007
H 0.3363213544694563 3.6873877052351793 9.930555444516147
O 2.85686938076798 7.2179861884393475 -3.2565096405848015
H 3.0083840320301487 7.925137158507258 -3.9014500819318423
H 3.2872768458328485 6.444849979669065 -3.6514422437017746
O -8.93288803193228 -1.9671497844851404 -3.327389875431786
H -9.789873847998933 -2.4188514620380435 -3.3048451985331644
H -8.481616138197404 -2.2813910742820416 -2.5295377374941106
O -6.9589060902625794 8.55915809061325 -7.055596602822341
H -7.114843339419701 9.515517578634707 -7.060836917378204
H -6.024355800537361 8.475713454512254 -6.81349188791476
C 10.224989440231294 -2.973899748307836 2.735471523328541
O 10.296621854749398 -3.8730706065321847 3.5223506895353953
O 10.153357025713191 -2.074728890083487 1.9485923571216865