146

C -5.3564454929577465 1.0091607042253532 -0.0734429577464788
C -4.079135492957747 0.16955070422535368 -0.19788295774647868
C -4.333545492957747 -1.2789292957746463 0.3017270422535212
C -3.1403854929577464 -2.1745492957746464 0.7330270422535212
C -2.905235492957746 0.902300704225353 0.41966704225352136
C -2.7423854929577463 1.056130704225354 1.8024770422535212
C -1.8861754929577463 1.3499307042253532 -0.4326129577464788
C -1.5304554929577463 1.5279207042253526 2.3254170422535214
H -3.5237954929577464 0.7301007042253529 2.484817042253521
C -0.6776454929577462 1.8010507042253527 0.08546704225352131
H -1.9759254929577463 1.2426607042253535 -1.5115229577464788
C -0.4680254929577463 1.8513207042253539 1.4698070422535212
H -1.3950654929577464 1.5446707042253527 3.404047042253521
H 0.1461845070422536 1.9972507042253538 -0.6030529577464789
C -1.8679654929577463 -2.0866092957746467 -0.08765295774647863
C -0.6628654929577462 -1.814079295774647 0.5787970422535212
C -1.8438954929577462 -2.213429295774647 -1.4808029577464787
C 0.5129345070422537 -1.5763292957746469 -0.13022295774647863
H -0.6401854929577462 -1.7032692957746463 1.6609470422535213
C -0.6547954929577462 -1.9962392957746466 -2.1933129577464787
H -2.7578654929577464 -2.4351492957746466 -2.026182957746479
C 0.5308845070422537 -1.645769295774647 -1.5261029577464789
H 1.4044045070422537 -1.2610992957746463 0.41551704225352126
H -0.6795654929577464 -2.0467992957746466 -3.2793129577464786
C 1.7843245070422535 -1.2521692957746469 -2.2771629577464787
H 1.4981245070422535 -0.9384492957746469 -3.290282957746479
H 2.241984507042254 -0.38631929577464685 -1.8135029577464787
C 0.9385645070422537 2.0647807042253534 1.9815670422535212
H 1.0508945070422537 1.5807407042253532 2.9609770422535213
H 1.6053245070422537 1.5496207042253536 1.3096170422535214
C 3.9676945070422533 -1.6881692957746468 -3.314052957746479
H 4.795084507042254 -2.398849295774647 -3.4044129577464783
H 3.548404507042253 -1.4816192957746468 -4.303802957746479
H 4.307714507042253 -0.7637192957746466 -2.851282957746479
C 2.344694507042253 -3.565079295774647 -3.101282957746479
H 1.6334345070422536 -4.047909295774646 -2.4251929577464786
H 1.8561845070422536 -3.293109295774647 -4.041792957746479
H 3.1808045070422537 -4.243519295774647 -3.298122957746479
C 3.5156645070422536 -2.648489295774647 -1.1110629577464786
H 3.9311845070422535 -1.748249295774647 -0.6771029577464787
H 2.767184507042254 -3.1044092957746465 -0.45972295774647876
H 4.319224507042254 -3.371819295774647 -1.2863129577464787
C 2.963994507042253 3.381090704225353 2.401027042253521
H 3.3337945070422537 4.369820704225353 2.6912870422535216
H 3.120994507042253 2.671350704225353 3.2183370422535216
H 3.4665445070422534 3.0664207042253535 1.4881370422535212
C 1.2973745070422538 4.282440704225354 0.8488370422535213
H 1.7592145070422538 3.7367207042253527 0.02653704225352116
H 0.23311450704225378 4.4484607042253534 0.6605570422535213
H 1.7921845070422535 5.251370704225354 0.9736770422535213
C 0.7724845070422537 4.194670704225353 3.2772470422535216
H -0.2956954929577462 4.278220704225354 3.057857042253521
H 0.9298945070422537 3.612620704225354 4.190337042253521
H 1.2046345070422537 5.193640704225353 3.3918370422535213
N 2.876084507042253 -2.324759295774647 -2.4576629577464786
N 1.4527845070422536 3.504690704225353 2.1388470422535213
C -3.593905492957746 -3.637819295774647 0.8297870422535213
H -2.8952554929577463 -1.8680692957746468 1.7595270422535212
H -5.022615492957747 -1.2402792957746467 1.1579970422535213
H -4.898275492957747 -1.7933092957746464 -0.48931295774647876
H -3.883675492957746 0.07871070422535364 -1.2758929577464788
H -3.8751654929577466 -4.038529295774646 -0.1505529577464788
H -4.4603554929577465 -3.7321892957746465 1.4932570422535212
H -2.7953554929577464 -4.271929295774647 1.2313670422535212
H -5.648775492957746 1.147700704225353 0.9733970422535213
H -6.189795492957747 0.5254307042253537 -0.5943629577464788
H -5.2178854929577465 2.002970704225354 -0.5139729577464787
C 3.6710445070422537 1.0263707042253536 -0.27764295774647874
O 2.7356545070422538 1.6631507042253526 -0.7327029577464788
O 3.650814507042253 0.3883007042253537 0.7790570422535212
O 4.756604507042254 0.8696707042253538 -0.8334829577464786
O -0.43121189419289063 -10.03389350356786 -0.3353367185754479
H -1.0726345095903937 -10.187982012086799 0.3744527691594982
H 0.2275178176602673 -9.448440106206256 0.06750497556706458
O 7.986943671177041 -0.5508765957054327 -4.3996655239619304
H 7.9106298853940356 -1.090771218349948 -5.200700703862914
H 8.931029930706678 -0.5843273056231082 -4.183924640322921
O 4.809967744323445 -1.8433433382071258 -8.209777159106768
H 4.741431368654212 -2.412168141870418 -7.428298774986295
H 5.7628502968653645 -1.7002863758306743 -8.312302721172122
O 14.23586525015015 0.07955129170835207 3.071380197408553
H 14.829712764290313 -0.2773196073311084 2.3939175428892696
H 14.828639803987237 0.5443183761070367 3.680947117346627
O -6.091648268837775 0.7048854072980326 6.832294647623143
H -5.891165121705163 -0.1270539556870025 7.286883209876812
H -6.510370390288277 1.249862909880821 7.515400240475827
O 0.7241361454613728 4.129338519829383 -7.300754643704884
H 0.45328327680448455 4.1049158587702435 -8.230813574131943
H 0.20350162231339064 3.424696326659634 -6.88677273925567
O 5.0920946077745075 4.16979081200039 -1.839073459153011
H 5.70514660339515 3.4728880733275447 -2.117391946494104
H 4.868640815634984 3.934069448116436 -0.9261299857182347
O -4.933841064378692 9.129220710762272 4.2926764342696675
H -4.330472076526392 8.466615757796617 4.661279062724043
H -5.068291508725888 9.754184176117313 5.020897341197132
O -2.926225247664613 8.136271107145085 3.138441634095356
H -2.889737351609664 8.111809489975041 2.1704345991896634
H -2.32957023574765 7.423912392212256 3.4132321039330416
O 3.087674844019163 -13.487331401772195 -4.616111049721587
H 4.002780474818001 -13.343149703035678 -4.900295284206389
H 2.741074044489114 -12.592699996274941 -4.48022698750994
O -2.3221549220541884 5.038453586877041 -2.281655690307766
H -2.7750461740373904 5.7403931405980915 -2.7727134605334096
H -2.2618617575082434 4.309564380669584 -2.9173027650932157
O -6.34545854538169 -2.008760467048062 9.16155117973171
H -6.843698105184113 -1.6487805695323177 8.412458948205817
H -5.449579642848488 -2.1268909680619563 8.81168246002943
O 0.8680267094860135 -2.1235819327149827 -7.112206991780252
H 1.2039651695486 -1.2189538940196392 -7.024111477950117
H 0.06718897153335424 -2.1300239371532603 -6.566698639553007
O 9.661998336306542 -1.410417348811098 -2.0702492500721057
H 9.48083884811852 -1.0819901226194473 -2.9637167390360375
H 9.26325399780806 -0.7440880615418348 -1.49061990493623
O 4.807252655781694 -4.4558922757428014 -9.691844545093705
H 5.236492508571886 -4.883701118434965 -8.935736021275169
H 4.747057796147674 -3.5246745336703995 -9.430746785579728
O -0.20420831880690038 11.40234165082548 -10.52946571391924
H -0.3777457392115 11.671983450000173 -9.61505583823047
H -0.2732140484337817 10.436094408946618 -10.505666110137815
O 6.405018735910575 -2.098554625067014 0.5176053287061289
H 5.973789555740564 -1.7286281254039257 -0.2673552664302863
H 6.244690420753638 -3.0514780248489606 0.4455375147601428
O -7.2313303886443 3.0263047234655662 -9.87846245617577
H -7.209812517244707 3.0265423975502075 -10.847226762713465
H -6.4333109653448135 3.5148153488543254 -9.626501520276896
O -4.342875638034286 2.3618779934348613 -3.0884661068955364
H -5.037747570938578 2.6394506017462485 -2.4727764116130277
H -3.5946719939384435 2.9384610830377307 -2.872352266418552
O -6.698718382814823 6.6096914687470685 -5.572334738568226
H -5.990053930393672 6.341204487460379 -6.176219488875926
H -7.195606413279911 5.792505247959758 -5.416543499931784
O 5.387885697689504 11.403777068753845 2.4944738637426167
H 5.212405286047456 11.902910172320148 1.6826609992509227
H 4.541825650033541 11.419794765518775 2.966583780447124
O -4.111209953854413 -3.6293948175430595 -7.565121127773427
H -4.311227715381795 -4.090401519659977 -8.393633694109546
H -4.944880486326005 -3.6614992143079483 -7.072247213575391
O 2.252749012267878 6.894510354162848 -12.171343329951517
H 2.1778052323132107 6.886507825325552 -13.137411001638295
H 3.0701935408543615 6.404636219524435 -11.995930333864322
O -5.942548208938772 -3.5874190644910406 6.529531423180423
H -6.606447110717772 -4.175551548148105 6.919795163212738
H -5.170711356647526 -4.158836807465792 6.400258143811558
C -13.155851752556261 -0.7563785552070925 -0.02742339894803243
O -13.040721050539117 -0.6598116989346412 1.1601110304571514
O -13.270982454573407 -0.8529454114795447 -1.214957828353216