146

C -5.3564454929577465 1.0091607042253532 -0.0734429577464788
C -4.079135492957747 0.16955070422535368 -0.19788295774647868
C -4.333545492957747 -1.2789292957746463 0.3017270422535212
C -3.1403854929577464 -2.1745492957746464 0.7330270422535212
C -2.905235492957746 0.902300704225353 0.41966704225352136
C -2.7423854929577463 1.056130704225354 1.8024770422535212
C -1.8861754929577463 1.3499307042253532 -0.4326129577464788
C -1.5304554929577463 1.5279207042253526 2.3254170422535214
H -3.5237954929577464 0.7301007042253529 2.484817042253521
C -0.6776454929577462 1.8010507042253527 0.08546704225352131
H -1.9759254929577463 1.2426607042253535 -1.5115229577464788
C -0.4680254929577463 1.8513207042253539 1.4698070422535212
H -1.3950654929577464 1.5446707042253527 3.404047042253521
H 0.1461845070422536 1.9972507042253538 -0.6030529577464789
C -1.8679654929577463 -2.0866092957746467 -0.08765295774647863
C -0.6628654929577462 -1.814079295774647 0.5787970422535212
C -1.8438954929577462 -2.213429295774647 -1.4808029577464787
C 0.5129345070422537 -1.5763292957746469 -0.13022295774647863
H -0.6401854929577462 -1.7032692957746463 1.6609470422535213
C -0.6547954929577462 -1.9962392957746466 -2.1933129577464787
H -2.7578654929577464 -2.4351492957746466 -2.026182957746479
C 0.5308845070422537 -1.645769295774647 -1.5261029577464789
H 1.4044045070422537 -1.2610992957746463 0.41551704225352126
H -0.6795654929577464 -2.0467992957746466 -3.2793129577464786
C 1.7843245070422535 -1.2521692957746469 -2.2771629577464787
H 1.4981245070422535 -0.9384492957746469 -3.290282957746479
H 2.241984507042254 -0.38631929577464685 -1.8135029577464787
C 0.9385645070422537 2.0647807042253534 1.9815670422535212
H 1.0508945070422537 1.5807407042253532 2.9609770422535213
H 1.6053245070422537 1.5496207042253536 1.3096170422535214
C 3.9676945070422533 -1.6881692957746468 -3.314052957746479
H 4.795084507042254 -2.398849295774647 -3.4044129577464783
H 3.548404507042253 -1.4816192957746468 -4.303802957746479
H 4.307714507042253 -0.7637192957746466 -2.851282957746479
C 2.344694507042253 -3.565079295774647 -3.101282957746479
H 1.6334345070422536 -4.047909295774646 -2.4251929577464786
H 1.8561845070422536 -3.293109295774647 -4.041792957746479
H 3.1808045070422537 -4.243519295774647 -3.298122957746479
C 3.5156645070422536 -2.648489295774647 -1.1110629577464786
H 3.9311845070422535 -1.748249295774647 -0.6771029577464787
H 2.767184507042254 -3.1044092957746465 -0.45972295774647876
H 4.319224507042254 -3.371819295774647 -1.2863129577464787
C 2.963994507042253 3.381090704225353 2.401027042253521
H 3.3337945070422537 4.369820704225353 2.6912870422535216
H 3.120994507042253 2.671350704225353 3.2183370422535216
H 3.4665445070422534 3.0664207042253535 1.4881370422535212
C 1.2973745070422538 4.282440704225354 0.8488370422535213
H 1.7592145070422538 3.7367207042253527 0.02653704225352116
H 0.23311450704225378 4.4484607042253534 0.6605570422535213
H 1.7921845070422535 5.251370704225354 0.9736770422535213
C 0.7724845070422537 4.194670704225353 3.2772470422535216
H -0.2956954929577462 4.278220704225354 3.057857042253521
H 0.9298945070422537 3.612620704225354 4.190337042253521
H 1.2046345070422537 5.193640704225353 3.3918370422535213
N 2.876084507042253 -2.324759295774647 -2.4576629577464786
N 1.4527845070422536 3.504690704225353 2.1388470422535213
C -3.593905492957746 -3.637819295774647 0.8297870422535213
H -2.8952554929577463 -1.8680692957746468 1.7595270422535212
H -5.022615492957747 -1.2402792957746467 1.1579970422535213
H -4.898275492957747 -1.7933092957746464 -0.48931295774647876
H -3.883675492957746 0.07871070422535364 -1.2758929577464788
H -3.8751654929577466 -4.038529295774646 -0.1505529577464788
H -4.4603554929577465 -3.7321892957746465 1.4932570422535212
H -2.7953554929577464 -4.271929295774647 1.2313670422535212
H -5.648775492957746 1.147700704225353 0.9733970422535213
H -6.189795492957747 0.5254307042253537 -0.5943629577464788
H -5.2178854929577465 2.002970704225354 -0.5139729577464787
C 3.6710445070422537 1.0263707042253536 -0.27764295774647874
O 2.7356545070422538 1.6631507042253526 -0.7327029577464788
O 3.650814507042253 0.3883007042253537 0.7790570422535212
O 4.756604507042254 0.8696707042253538 -0.8334829577464786
O 0.17014993288257996 -7.243727363126887 1.1948320610963084
H 0.2037928224346195 -7.083100575235006 2.149837059980674
H 1.095706698779206 -7.393025301253265 0.949848912544843
O 5.468299228052274 4.381984314220291 -4.494530227511075
H 5.687199819567208 4.788015852829057 -3.6423634142700223
H 6.292131491605661 3.950498637233282 -4.7667111533371935
O 2.3183335589720198 -5.930151535581645 3.228572372644162
H 2.0292577751251564 -5.107458339943872 3.6511578124603377
H 2.596466972083131 -5.6530526441522735 2.3426717274362607
O 3.058474884856042 5.833709861169759 -0.4375272928477282
H 3.5447115394656383 5.314621668752516 0.22056747320581604
H 3.7403459787207156 6.1096932174386165 -1.0682783869525023
O 4.16564377980003 -0.4776985839017467 8.704736712560042
H 4.720380708919513 -0.30598634221321985 7.929011759741463
H 4.801897513550349 -0.5955493995371226 9.426023282407876
O -4.149224526423 -8.105282739113584 -0.959427452472934
H -4.562159602668799 -8.364666867926193 -1.7967875025266737
H -3.212120767080358 -8.001173948840496 -1.1829444502913606
O 2.5390972526168882 -6.1504858545274494 -3.009052186198993
H 2.697831502500108 -6.323636284830852 -2.0689512749667154
H 2.301870340543512 -5.211396854629802 -3.0372866821103486
O 7.815649546458185 3.5508428325867025 4.216938472665134
H 8.339640951914962 3.44949531350205 3.408156027082381
H 8.465948056435604 3.4620133872501495 4.9298081114227035
O 3.916951506983289 -2.651754457983565 1.6661918427560272
H 4.295715263776464 -2.5942911905260875 2.5562499006000268
H 4.289174158712449 -1.8860111107227469 1.2035371465024274
O 1.7671063298713565 -10.111618989938254 -4.927470488456973
H 1.0483498968179545 -10.452448897976819 -4.374124737022325
H 1.7900311289352437 -10.71932226973268 -5.681879609302538
O -8.630063651119926 -10.83097397429208 4.810077193824801
H -8.53008105126087 -11.617510556791917 5.3671508343921
H -7.947907253931196 -10.937461370907204 4.130161736994598
O -5.6761387553941045 -5.186979898177001 -3.5335403018629723
H -5.994462515144578 -4.7780353192665626 -2.714759701055841
H -4.805252442792495 -5.539257701673499 -3.296012779274838
O 6.924371857957816 -1.0319725546506902 3.0530884140782
H 6.831697289931683 -1.9928302806760765 3.1375349159506567
H 6.023563026748651 -0.6979528036129528 3.179327076271145
O -2.049826509230608 -6.063208816912285 -2.1099279625475975
H -1.9429748248418053 -5.870861151243021 -3.0536188282207064
H -1.556258404952814 -5.355194908625976 -1.669395584154397
O -2.3266849036912127 9.26717366042063 0.9640695250878517
H -2.740832875843098 9.417890429818636 0.10109022667756484
H -1.587043265534466 8.6726281997057 0.7680902237622345
O 0.9510513638744569 9.970710308750906 -0.6294461593588545
H 0.7849813143470692 9.889775977187774 0.3217834288712431
H 0.7789821191471651 10.905404954061966 -0.8183906997557988
O -9.042159195017833 1.527964074460249 3.3170046843854437
H -8.66827662339703 1.968242734988428 2.53897262809102
H -8.348931752650493 0.9090001039496315 3.59137899196283
O -1.671028298550578 7.233283870963948 9.117981288543678
H -1.3829178579878478 7.284072284688532 10.041767123015116
H -1.05555534480527 6.602477141039734 8.715193680752245
O 5.961907995537265 -5.099112992932953 5.178501191247809
H 5.947038965526666 -5.069238029626284 4.210072693415383
H 5.102983130712223 -4.732657259432575 5.4371906117311015
O -9.088331659168528 2.6503610015547903 -4.588500113266692
H -8.9675204739416 1.7600291946027886 -4.9513792776639445
H -9.044823383330241 3.2276980075016777 -5.3655142417082935
O -5.188064230460395 5.200640291578637 6.029921734288018
H -5.222633095724887 5.181080414275404 5.061732826246714
H -4.824387944425755 6.075425834606518 6.233518779908684
O 12.133087361405796 -2.4846208933974747 -0.35328421281440914
H 11.37872572086605 -2.776237302961535 -0.8870123663299907
H 11.727753186264703 -1.986782806347101 0.3725417923994545
O 2.1332379862292106 11.861436530907365 4.983050009211109
H 2.7352032286304677 12.529179322603646 4.621491206277957
H 1.567917501926785 11.624968903113704 4.232411777215357
O -6.465852246138151 -13.405726959661035 8.834752239179158
H -7.031945529570654 -14.140683856540415 8.554852058611075
H -6.691828574309989 -12.68976870574691 8.222134559008065
C 0.6164582159071179 -3.6669426763423 2.107363404101623
O 0.27136454981600866 -4.608464811380397 2.761018273399712
O 0.9615518819982268 -2.7254205413042034 1.4537085348035337