146

C -5.3564454929577465 1.0091607042253532 -0.0734429577464788
C -4.079135492957747 0.16955070422535368 -0.19788295774647868
C -4.333545492957747 -1.2789292957746463 0.3017270422535212
C -3.1403854929577464 -2.1745492957746464 0.7330270422535212
C -2.905235492957746 0.902300704225353 0.41966704225352136
C -2.7423854929577463 1.056130704225354 1.8024770422535212
C -1.8861754929577463 1.3499307042253532 -0.4326129577464788
C -1.5304554929577463 1.5279207042253526 2.3254170422535214
H -3.5237954929577464 0.7301007042253529 2.484817042253521
C -0.6776454929577462 1.8010507042253527 0.08546704225352131
H -1.9759254929577463 1.2426607042253535 -1.5115229577464788
C -0.4680254929577463 1.8513207042253539 1.4698070422535212
H -1.3950654929577464 1.5446707042253527 3.404047042253521
H 0.1461845070422536 1.9972507042253538 -0.6030529577464789
C -1.8679654929577463 -2.0866092957746467 -0.08765295774647863
C -0.6628654929577462 -1.814079295774647 0.5787970422535212
C -1.8438954929577462 -2.213429295774647 -1.4808029577464787
C 0.5129345070422537 -1.5763292957746469 -0.13022295774647863
H -0.6401854929577462 -1.7032692957746463 1.6609470422535213
C -0.6547954929577462 -1.9962392957746466 -2.1933129577464787
H -2.7578654929577464 -2.4351492957746466 -2.026182957746479
C 0.5308845070422537 -1.645769295774647 -1.5261029577464789
H 1.4044045070422537 -1.2610992957746463 0.41551704225352126
H -0.6795654929577464 -2.0467992957746466 -3.2793129577464786
C 1.7843245070422535 -1.2521692957746469 -2.2771629577464787
H 1.4981245070422535 -0.9384492957746469 -3.290282957746479
H 2.241984507042254 -0.38631929577464685 -1.8135029577464787
C 0.9385645070422537 2.0647807042253534 1.9815670422535212
H 1.0508945070422537 1.5807407042253532 2.9609770422535213
H 1.6053245070422537 1.5496207042253536 1.3096170422535214
C 3.9676945070422533 -1.6881692957746468 -3.314052957746479
H 4.795084507042254 -2.398849295774647 -3.4044129577464783
H 3.548404507042253 -1.4816192957746468 -4.303802957746479
H 4.307714507042253 -0.7637192957746466 -2.851282957746479
C 2.344694507042253 -3.565079295774647 -3.101282957746479
H 1.6334345070422536 -4.047909295774646 -2.4251929577464786
H 1.8561845070422536 -3.293109295774647 -4.041792957746479
H 3.1808045070422537 -4.243519295774647 -3.298122957746479
C 3.5156645070422536 -2.648489295774647 -1.1110629577464786
H 3.9311845070422535 -1.748249295774647 -0.6771029577464787
H 2.767184507042254 -3.1044092957746465 -0.45972295774647876
H 4.319224507042254 -3.371819295774647 -1.2863129577464787
C 2.963994507042253 3.381090704225353 2.401027042253521
H 3.3337945070422537 4.369820704225353 2.6912870422535216
H 3.120994507042253 2.671350704225353 3.2183370422535216
H 3.4665445070422534 3.0664207042253535 1.4881370422535212
C 1.2973745070422538 4.282440704225354 0.8488370422535213
H 1.7592145070422538 3.7367207042253527 0.02653704225352116
H 0.23311450704225378 4.4484607042253534 0.6605570422535213
H 1.7921845070422535 5.251370704225354 0.9736770422535213
C 0.7724845070422537 4.194670704225353 3.2772470422535216
H -0.2956954929577462 4.278220704225354 3.057857042253521
H 0.9298945070422537 3.612620704225354 4.190337042253521
H 1.2046345070422537 5.193640704225353 3.3918370422535213
N 2.876084507042253 -2.324759295774647 -2.4576629577464786
N 1.4527845070422536 3.504690704225353 2.1388470422535213
C -3.593905492957746 -3.637819295774647 0.8297870422535213
H -2.8952554929577463 -1.8680692957746468 1.7595270422535212
H -5.022615492957747 -1.2402792957746467 1.1579970422535213
H -4.898275492957747 -1.7933092957746464 -0.48931295774647876
H -3.883675492957746 0.07871070422535364 -1.2758929577464788
H -3.8751654929577466 -4.038529295774646 -0.1505529577464788
H -4.4603554929577465 -3.7321892957746465 1.4932570422535212
H -2.7953554929577464 -4.271929295774647 1.2313670422535212
H -5.648775492957746 1.147700704225353 0.9733970422535213
H -6.189795492957747 0.5254307042253537 -0.5943629577464788
H -5.2178854929577465 2.002970704225354 -0.5139729577464787
C 3.6710445070422537 1.0263707042253536 -0.27764295774647874
O 2.7356545070422538 1.6631507042253526 -0.7327029577464788
O 3.650814507042253 0.3883007042253537 0.7790570422535212
O 4.756604507042254 0.8696707042253538 -0.8334829577464786
O -1.4628503055777333 -4.357875597398638 8.340687620293487
H -1.998618048384778 -3.8173923221986166 8.94051935661335
H -1.1131618364955265 -3.720201014298517 7.700335338374364
O -4.168012391727836 8.398336362167008 -3.595254789107718
H -4.401447099590308 9.267268793078268 -3.955021414263264
H -3.3005756698732864 8.2095371090222 -3.9836750767990208
O 1.176844939289448 8.68380407386382 -0.4979364858195521
H 0.943570190537137 8.886815139973434 0.42039719837785605
H 0.42462038299795957 9.0172840335622 -1.0097091674777652
O 1.416202252312605 -9.702296956671619 -4.140977995829643
H 1.0918312441363984 -9.516258540724124 -5.0349245902895685
H 1.7258157066955329 -8.841820066722377 -3.820539273094159
O -0.7111308088066903 -5.600490124389514 10.357759433852223
H -1.3423342243001897 -4.976714286327643 9.968589408002916
H -0.6580339130579955 -6.316414307690432 9.70691749626156
O 0.02409618637526334 -6.750380611893242 7.0717991944236385
H -0.5619637243895257 -6.878244905772744 6.310778918580041
H 0.07501046435291037 -7.628580176212812 7.478167507443896
O 5.422158503798961 -7.653087652565959 6.6735636060304016
H 5.592429345913803 -8.58773487247639 6.864377052986335
H 4.714841523901084 -7.674428292929961 6.011589881992202
O -9.905064516475623 3.941737176162218 -3.4014266746827744
H -10.28528354644196 4.333466185053073 -2.600833625909025
H -9.075078687776127 4.425709332238123 -3.527348954686164
O 6.309959710187713 -6.384467999901118 -9.533623730198734
H 6.372004150443202 -6.3386473143124125 -10.49955245899065
H 6.248807138783541 -5.45728115478391 -9.258765836820622
O 12.849428044174353 -5.011404441974518 -3.57189121026727
H 13.698593088450762 -4.749256890281922 -3.958109730823473
H 13.063813577198866 -5.796791364389096 -3.0463741604677876
O 9.355113483173717 -3.309183130574774 1.7769079694154113
H 9.776789745103834 -3.78653258004092 2.5071777758013876
H 9.686833734445258 -2.403198848368833 1.8669973671941167
O -0.6386398385144401 -10.203675789496673 5.9759110625663725
H -0.7054461216674475 -9.289620209782596 6.290564323513788
H -0.7240147213228223 -10.73536094044779 6.7815064783574135
O 5.383044097671196 6.621441494381742 -10.600543250078552
H 6.275484994831905 6.998338397823101 -10.622114669858036
H 4.8997634056827435 7.1989250494236625 -9.990695350428723
O -9.009498628197289 -0.9626983921111014 -6.512966557380961
H -9.023909226790796 -1.858492216845237 -6.8821726178896805
H -8.588912345543172 -1.073181900710607 -5.647020532809723
O -7.7146440408120975 -0.14240685661631747 6.419262862657323
H -7.150812383756858 -0.820731739393362 6.018093854871513
H -7.290503999650024 0.040751609642117104 7.271037566449876
O -4.344395401576169 11.535453673618852 4.35338599722597
H -4.806254186894842 11.904862178322357 5.12097389185217
H -3.412469693588155 11.535022651139068 4.618859599135199
O 1.1780692288006076 13.377518216627863 1.038990627237324
H 1.361194768835981 13.633602048607369 1.9554258210647142
H 1.9981544410707857 12.952249752294687 0.7464689662282964
O -15.251883195999334 2.0771205335761778 -3.275465631052901
H -16.02957843422878 2.2303067275014152 -2.7180685882495315
H -14.684046454661054 2.8425598097366365 -3.100462505374302
O 7.047720604602349 -8.191992238677043 -6.343357905767998
H 6.105554148728602 -8.166311660338813 -6.568369537072954
H 7.106733640932588 -7.678270524407003 -5.523864521944471
O -10.181020557741611 -5.621041021985441 1.0043436564717019
H -9.75532934524047 -6.079020456001375 0.2640672307240268
H -9.708365621683994 -4.776988792876692 1.0603355331764583
O 4.664362624601146 -6.139582650585021 -0.3555591373720288
H 4.601708454652766 -6.274207669411954 -1.3131174469249918
H 5.362501214951462 -5.474737971581766 -0.25785547436633105
O -0.22222958867992415 3.810414263513154 -5.308046910119999
H -0.3806079623119025 3.8887553348751727 -4.355289688051575
H -0.0820999173644732 4.724351458099987 -5.597951073366707
O 3.871274994381523 -7.904348148777682 0.19808933034229437
H 4.696873488824412 -7.410526364899505 0.08192337732244259
H 3.970928985907647 -8.668445048305808 -0.38943680048459717
O 3.1522745703332773 5.784212176216611 7.359818809221341
H 3.3786481894788865 5.027135787736622 7.92067323192033
H 3.030124189434128 5.395846740127925 6.4804932058196
C -3.4092391928667687 -5.693959013833419 4.45027076051036
O -2.9505078012120673 -6.156183204906776 5.454627552092476
O -3.86797058452147 -5.231734822760062 3.4459139689282443