146

C -5.3564454929577465 1.0091607042253532 -0.0734429577464788
C -4.079135492957747 0.16955070422535368 -0.19788295774647868
C -4.333545492957747 -1.2789292957746463 0.3017270422535212
C -3.1403854929577464 -2.1745492957746464 0.7330270422535212
C -2.905235492957746 0.902300704225353 0.41966704225352136
C -2.7423854929577463 1.056130704225354 1.8024770422535212
C -1.8861754929577463 1.3499307042253532 -0.4326129577464788
C -1.5304554929577463 1.5279207042253526 2.3254170422535214
H -3.5237954929577464 0.7301007042253529 2.484817042253521
C -0.6776454929577462 1.8010507042253527 0.08546704225352131
H -1.9759254929577463 1.2426607042253535 -1.5115229577464788
C -0.4680254929577463 1.8513207042253539 1.4698070422535212
H -1.3950654929577464 1.5446707042253527 3.404047042253521
H 0.1461845070422536 1.9972507042253538 -0.6030529577464789
C -1.8679654929577463 -2.0866092957746467 -0.08765295774647863
C -0.6628654929577462 -1.814079295774647 0.5787970422535212
C -1.8438954929577462 -2.213429295774647 -1.4808029577464787
C 0.5129345070422537 -1.5763292957746469 -0.13022295774647863
H -0.6401854929577462 -1.7032692957746463 1.6609470422535213
C -0.6547954929577462 -1.9962392957746466 -2.1933129577464787
H -2.7578654929577464 -2.4351492957746466 -2.026182957746479
C 0.5308845070422537 -1.645769295774647 -1.5261029577464789
H 1.4044045070422537 -1.2610992957746463 0.41551704225352126
H -0.6795654929577464 -2.0467992957746466 -3.2793129577464786
C 1.7843245070422535 -1.2521692957746469 -2.2771629577464787
H 1.4981245070422535 -0.9384492957746469 -3.290282957746479
H 2.241984507042254 -0.38631929577464685 -1.8135029577464787
C 0.9385645070422537 2.0647807042253534 1.9815670422535212
H 1.0508945070422537 1.5807407042253532 2.9609770422535213
H 1.6053245070422537 1.5496207042253536 1.3096170422535214
C 3.9676945070422533 -1.6881692957746468 -3.314052957746479
H 4.795084507042254 -2.398849295774647 -3.4044129577464783
H 3.548404507042253 -1.4816192957746468 -4.303802957746479
H 4.307714507042253 -0.7637192957746466 -2.851282957746479
C 2.344694507042253 -3.565079295774647 -3.101282957746479
H 1.6334345070422536 -4.047909295774646 -2.4251929577464786
H 1.8561845070422536 -3.293109295774647 -4.041792957746479
H 3.1808045070422537 -4.243519295774647 -3.298122957746479
C 3.5156645070422536 -2.648489295774647 -1.1110629577464786
H 3.9311845070422535 -1.748249295774647 -0.6771029577464787
H 2.767184507042254 -3.1044092957746465 -0.45972295774647876
H 4.319224507042254 -3.371819295774647 -1.2863129577464787
C 2.963994507042253 3.381090704225353 2.401027042253521
H 3.3337945070422537 4.369820704225353 2.6912870422535216
H 3.120994507042253 2.671350704225353 3.2183370422535216
H 3.4665445070422534 3.0664207042253535 1.4881370422535212
C 1.2973745070422538 4.282440704225354 0.8488370422535213
H 1.7592145070422538 3.7367207042253527 0.02653704225352116
H 0.23311450704225378 4.4484607042253534 0.6605570422535213
H 1.7921845070422535 5.251370704225354 0.9736770422535213
C 0.7724845070422537 4.194670704225353 3.2772470422535216
H -0.2956954929577462 4.278220704225354 3.057857042253521
H 0.9298945070422537 3.612620704225354 4.190337042253521
H 1.2046345070422537 5.193640704225353 3.3918370422535213
N 2.876084507042253 -2.324759295774647 -2.4576629577464786
N 1.4527845070422536 3.504690704225353 2.1388470422535213
C -3.593905492957746 -3.637819295774647 0.8297870422535213
H -2.8952554929577463 -1.8680692957746468 1.7595270422535212
H -5.022615492957747 -1.2402792957746467 1.1579970422535213
H -4.898275492957747 -1.7933092957746464 -0.48931295774647876
H -3.883675492957746 0.07871070422535364 -1.2758929577464788
H -3.8751654929577466 -4.038529295774646 -0.1505529577464788
H -4.4603554929577465 -3.7321892957746465 1.4932570422535212
H -2.7953554929577464 -4.271929295774647 1.2313670422535212
H -5.648775492957746 1.147700704225353 0.9733970422535213
H -6.189795492957747 0.5254307042253537 -0.5943629577464788
H -5.2178854929577465 2.002970704225354 -0.5139729577464787
C 3.6710445070422537 1.0263707042253536 -0.27764295774647874
O 2.7356545070422538 1.6631507042253526 -0.7327029577464788
O 3.650814507042253 0.3883007042253537 0.7790570422535212
O 4.756604507042254 0.8696707042253538 -0.8334829577464786
O -2.778032040319189 13.912252608083108 1.7824034953758119
H -3.7415174989235718 13.991460330465744 1.8486550211911386
H -2.5896512578037907 14.116746145789431 0.8541486714641673
O 11.367868376714284 -0.5849491773450017 3.596716609296526
H 11.174940774040902 -0.7961429443586256 2.6708961678494285
H 10.493086830531361 -0.505809980625171 4.005930707661128
O 1.5755067750760123 -1.9827407194480704 3.6314871502954293
H 1.3794139685825846 -2.8521440799532254 4.011819590252735
H 2.0814547432634223 -2.1863693391240977 2.8305414698427125
O -4.409027704406801 6.251881869151804 8.874895027752682
H -5.254673084786694 6.32845372779177 9.341786876050088
H -4.661550438817777 6.007808559910727 7.97177685573879
O -4.7334693979107545 -6.887412721170682 -0.040325641694200665
H -4.991913880287768 -6.827220471184116 0.8916350331577123
H -5.192661550212652 -6.1439225139949745 -0.45904610142619584
O 7.397571731247906 5.880390586704299 -12.214145373781927
H 7.280262881741555 5.917426227983128 -13.17530839429539
H 8.238237306685614 6.338039573143794 -12.063146235423831
O 7.155683434038066 4.1483027145506846 -12.561365416195418
H 6.928230856451277 4.845116566928084 -13.195150188010025
H 6.30198579435714 3.749009973679237 -12.336137550711182
O 7.938858157242521 6.247995641474443 -9.11428731095411
H 8.606432934133464 6.434910469962029 -8.437253987512445
H 7.150473336559724 6.00654966389118 -8.605253757319561
O 7.246656741529355 -2.075037161549937 3.6792758088624566
H 7.140633365992914 -2.6782095639856807 2.928336760949941
H 6.362765513531034 -2.0356081830141806 4.074425903154799
O -11.739292760581801 3.263298174995265 4.1187908283062145
H -11.758268429353352 3.1848121525259936 5.084423897940652
H -12.20486129459361 2.4713990601338374 3.8104019888197938
O -3.8359011241395127 -9.653401726818998 5.17092947845033
H -4.272066774419782 -9.478309363863367 4.323539634960213
H -3.519835511628232 -8.782813045852135 5.4557800032177
O -7.799077606930308 3.888515873378732 1.3129813329524034
H -8.389663016436216 4.211891583965763 2.0098345318265087
H -7.378093678981689 4.6917391110085385 0.971562371498236
O -10.19097412589949 -2.830810202711818 -7.723510618013851
H -10.629071558737797 -2.4803893706710998 -8.513601268959915
H -10.537665619573279 -2.284724193557232 -7.002014240254507
O -1.0972674176112398 6.109363070166998 -1.9475436719051484
H -0.7602071061124165 5.8359474869815475 -2.8139163527900415
H -0.7978160245347019 5.409219715713137 -1.3483024093917817
O -5.496642895571897 -1.1622058072568298 -10.598973375751457
H -4.593774301258832 -1.4819414451883937 -10.452123860465754
H -6.017825966900974 -1.6111119196979384 -9.91646809908834
O -9.17163931798176 -7.028626863380895 5.8787270094105875
H -9.506230761894818 -6.122218531264825 5.804971616179031
H -9.027891467136877 -7.14842096209648 6.829488742754119
O 5.019012284349358 -12.446517901237229 -3.5729368053772403
H 5.4655672982983985 -12.20860053075495 -4.399345482267659
H 4.44166385573414 -11.689495880571293 -3.3925250637903797
O 7.620548068230221 -7.438691657791944 2.8266970483623086
H 8.421800487092238 -7.811291191376592 2.4290395251840446
H 7.954183456122909 -6.76486254935235 3.437928350624552
O 2.1051413647336275 -6.418917340490909 -7.939145616692466
H 2.170327111819931 -6.4152640243743395 -6.972344277968654
H 2.8819815272077625 -6.923119729904597 -8.224209217975908
O -4.448033795865127 -8.416795794718553 0.23784284735332328
H -4.1908328739413045 -8.907167724423077 -0.5573617887117568
H -3.720077086482603 -8.576677724252777 0.8570994518182095
O 8.177126210315024 7.8580155171720865 4.956346320803565
H 8.498170177128452 8.760612790055115 4.810688189355916
H 8.94217218686636 7.394807092004137 5.329313548473827
O 9.280657230975596 7.133626004991892 9.783774384575388
H 9.73270744889627 6.348849518891173 9.439182126622196
H 8.985087953759347 6.864747840397722 10.666557075428768
O -1.1267436914744624 -5.936004904589209 -9.337865431961148
H -0.3711734209028971 -6.052471744463642 -9.933278228546907
H -1.0305553981472588 -5.0283711787306835 -9.012426073230564
O -10.648478045419381 0.032000922457411374 0.19324363428660352
H -11.248703420113603 -0.7276293119135135 0.2339715547190604
H -9.84272548279345 -0.3275730606866787 -0.2072951313374456
C -2.101811136700589 10.019965304067753 -5.111885434655222
O -2.054042177927315 8.841978566421 -5.318969064636152
O -2.149580095473863 11.197952041714506 -4.9048018046742925