146

C -5.3564454929577465 1.0091607042253532 -0.0734429577464788
C -4.079135492957747 0.16955070422535368 -0.19788295774647868
C -4.333545492957747 -1.2789292957746463 0.3017270422535212
C -3.1403854929577464 -2.1745492957746464 0.7330270422535212
C -2.905235492957746 0.902300704225353 0.41966704225352136
C -2.7423854929577463 1.056130704225354 1.8024770422535212
C -1.8861754929577463 1.3499307042253532 -0.4326129577464788
C -1.5304554929577463 1.5279207042253526 2.3254170422535214
H -3.5237954929577464 0.7301007042253529 2.484817042253521
C -0.6776454929577462 1.8010507042253527 0.08546704225352131
H -1.9759254929577463 1.2426607042253535 -1.5115229577464788
C -0.4680254929577463 1.8513207042253539 1.4698070422535212
H -1.3950654929577464 1.5446707042253527 3.404047042253521
H 0.1461845070422536 1.9972507042253538 -0.6030529577464789
C -1.8679654929577463 -2.0866092957746467 -0.08765295774647863
C -0.6628654929577462 -1.814079295774647 0.5787970422535212
C -1.8438954929577462 -2.213429295774647 -1.4808029577464787
C 0.5129345070422537 -1.5763292957746469 -0.13022295774647863
H -0.6401854929577462 -1.7032692957746463 1.6609470422535213
C -0.6547954929577462 -1.9962392957746466 -2.1933129577464787
H -2.7578654929577464 -2.4351492957746466 -2.026182957746479
C 0.5308845070422537 -1.645769295774647 -1.5261029577464789
H 1.4044045070422537 -1.2610992957746463 0.41551704225352126
H -0.6795654929577464 -2.0467992957746466 -3.2793129577464786
C 1.7843245070422535 -1.2521692957746469 -2.2771629577464787
H 1.4981245070422535 -0.9384492957746469 -3.290282957746479
H 2.241984507042254 -0.38631929577464685 -1.8135029577464787
C 0.9385645070422537 2.0647807042253534 1.9815670422535212
H 1.0508945070422537 1.5807407042253532 2.9609770422535213
H 1.6053245070422537 1.5496207042253536 1.3096170422535214
C 3.9676945070422533 -1.6881692957746468 -3.314052957746479
H 4.795084507042254 -2.398849295774647 -3.4044129577464783
H 3.548404507042253 -1.4816192957746468 -4.303802957746479
H 4.307714507042253 -0.7637192957746466 -2.851282957746479
C 2.344694507042253 -3.565079295774647 -3.101282957746479
H 1.6334345070422536 -4.047909295774646 -2.4251929577464786
H 1.8561845070422536 -3.293109295774647 -4.041792957746479
H 3.1808045070422537 -4.243519295774647 -3.298122957746479
C 3.5156645070422536 -2.648489295774647 -1.1110629577464786
H 3.9311845070422535 -1.748249295774647 -0.6771029577464787
H 2.767184507042254 -3.1044092957746465 -0.45972295774647876
H 4.319224507042254 -3.371819295774647 -1.2863129577464787
C 2.963994507042253 3.381090704225353 2.401027042253521
H 3.3337945070422537 4.369820704225353 2.6912870422535216
H 3.120994507042253 2.671350704225353 3.2183370422535216
H 3.4665445070422534 3.0664207042253535 1.4881370422535212
C 1.2973745070422538 4.282440704225354 0.8488370422535213
H 1.7592145070422538 3.7367207042253527 0.02653704225352116
H 0.23311450704225378 4.4484607042253534 0.6605570422535213
H 1.7921845070422535 5.251370704225354 0.9736770422535213
C 0.7724845070422537 4.194670704225353 3.2772470422535216
H -0.2956954929577462 4.278220704225354 3.057857042253521
H 0.9298945070422537 3.612620704225354 4.190337042253521
H 1.2046345070422537 5.193640704225353 3.3918370422535213
N 2.876084507042253 -2.324759295774647 -2.4576629577464786
N 1.4527845070422536 3.504690704225353 2.1388470422535213
C -3.593905492957746 -3.637819295774647 0.8297870422535213
H -2.8952554929577463 -1.8680692957746468 1.7595270422535212
H -5.022615492957747 -1.2402792957746467 1.1579970422535213
H -4.898275492957747 -1.7933092957746464 -0.48931295774647876
H -3.883675492957746 0.07871070422535364 -1.2758929577464788
H -3.8751654929577466 -4.038529295774646 -0.1505529577464788
H -4.4603554929577465 -3.7321892957746465 1.4932570422535212
H -2.7953554929577464 -4.271929295774647 1.2313670422535212
H -5.648775492957746 1.147700704225353 0.9733970422535213
H -6.189795492957747 0.5254307042253537 -0.5943629577464788
H -5.2178854929577465 2.002970704225354 -0.5139729577464787
C 3.6710445070422537 1.0263707042253536 -0.27764295774647874
O 2.7356545070422538 1.6631507042253526 -0.7327029577464788
O 3.650814507042253 0.3883007042253537 0.7790570422535212
O 4.756604507042254 0.8696707042253538 -0.8334829577464786
O -7.773336319272879 0.6013474608511755 10.629809923888027
H -8.704298743978182 0.37044648527616086 10.767509089336942
H -7.319828301717714 -0.25481557360179874 10.61315817474686
O 3.669435280173475 -12.060087599192034 -1.2320172046064854
H 3.626507210284526 -12.313985010111631 -0.2978541340219456
H 2.7442832680963933 -12.0700910808926 -1.5200373934884355
O -2.417491575016711 -11.332937249117888 -6.047976405743045
H -3.2598878999298195 -10.854858217649893 -6.075837280523133
H -1.8286499040665545 -10.802255774056846 -6.605295526965042
O 0.19108653222834526 -7.754073999486112 -7.543121974506368
H -0.21261352389532395 -7.755480293136155 -8.424025853442041
H 0.8868296833318055 -7.082506183233091 -7.605572596326951
O 9.747666322816807 -4.917099679120852 0.7166657275987549
H 9.63451840596282 -5.609835347250273 0.04862216621006121
H 9.345573919118891 -5.293055949681512 1.5141245201482834
O 11.584637827216607 -2.037669090485803 -4.529445584296935
H 11.029602252642698 -2.5106845006246745 -5.1675359302735595
H 10.954172950632184 -1.7012017251047924 -3.875025462565529
O 2.039330264240266 -3.7156784707776302 11.134536539343875
H 1.2487940330021612 -3.2292619832920155 10.856294154538812
H 1.694871570059173 -4.40719099233079 11.719447288807627
O 8.045467942111626 2.905268521811413 -9.353056265331727
H 8.702074099558196 2.815548743736854 -10.0600117606251
H 7.220674421456229 3.099814166416301 -9.822981349520838
O 1.4765479767688716 -3.04659100269813 -9.524681518772564
H 1.9043377719854389 -3.0295871877619582 -10.393976703555143
H 0.6557101783808954 -3.538406476626573 -9.677340592011335
O 5.235189987902135 -6.13752207376586 -5.172349917498979
H 4.379536314352735 -5.695960968495611 -5.063501682998211
H 5.062251648718833 -7.05242647835256 -4.904013923624927
O 0.810091657182767 9.132043997177856 5.163639767134676
H 0.05519053511329175 8.528337353396093 5.231683437317917
H 1.280613622801027 9.01390989879733 6.002457601333823
O 5.1583316116911835 -4.156679182125134 -6.233674259293806
H 4.438760877231984 -3.711475499006297 -6.705880777193837
H 5.379497181590789 -4.910431253448875 -6.801041468397532
O 8.254436314330118 12.603048379365891 -5.236459324976091
H 8.983902879360626 13.004709038327384 -4.740965023853251
H 8.626298854783975 11.771879795153243 -5.567878968215815
O -0.4882791193183984 -5.445221994472936 -2.325324250819987
H -1.202552383475247 -5.129995892608347 -2.8992698629767295
H -0.9510622649283362 -5.839627174741292 -1.5708454517693733
O -0.6660561348502558 0.3265366639946985 11.050648756020966
H -0.37097087580585764 0.1004719802068017 11.945515676595518
H -0.12821682974632131 1.0972129890740847 10.814536858507418
O -2.994346903977619 -8.84675185843076 9.835029923039158
H -2.5765827931980665 -8.11052805325007 10.306638885347798
H -3.8810961197355374 -8.517208052774834 9.625176038618296
O -1.9430590766473088 10.165010129618553 -6.264771092503058
H -2.4325597134832617 10.748969201250247 -6.863393081822066
H -1.2825075634940757 9.744898923671172 -6.835857966287082
O -1.9928981034898308 4.002186677938956 -9.998842218908198
H -1.5308817294472743 3.188705572672978 -9.74634129140136
H -2.7988977870822773 3.6877616670963196 -10.435263307887045
O -9.183844348927876 -3.557131737377388 -1.05438181745666
H -9.559877262755665 -2.692926969184744 -1.27958555466207
H -8.686878962475632 -3.390929639813956 -0.2392964159594385
O 5.934904188043962 6.124386184616241 -4.161976621015503
H 6.364378009307823 5.256382797605489 -4.1949874357112975
H 6.194895825447888 6.545991861590629 -4.994812106524491
O 4.377503278854781 8.863794892253546 -3.1676384624210914
H 3.8495237106828126 9.55534431588316 -3.5942112313251693
H 5.1492394451851204 9.337666417867116 -2.822919720414774
O -0.7029978284118799 -4.792131847615804 0.7900439399377859
H -0.6983714079107899 -4.868049492447094 1.7560576377374695
H -1.0324863215033213 -5.652315341358712 0.4892389627306664
O 5.781000253856347 -9.443511649412311 8.155860573457215
H 5.541787475866918 -8.607178312693524 8.582816254575757
H 6.728439755269521 -9.351240791858547 7.974735135408746
O -6.836957613447067 -8.095998806892265 7.577879181663325
H -7.640646163868633 -8.519061549834785 7.240136696394983
H -6.9262732585581865 -7.171019306775303 7.303292976252782
C 2.8088974942760974 -1.942909194453321 8.449819265019716
O 3.1820709707645385 -1.0502040699183537 9.15454429960735
O 2.4357240177876562 -2.835614318988287 7.745094230432083