146

C -5.3564454929577465 1.0091607042253532 -0.0734429577464788
C -4.079135492957747 0.16955070422535368 -0.19788295774647868
C -4.333545492957747 -1.2789292957746463 0.3017270422535212
C -3.1403854929577464 -2.1745492957746464 0.7330270422535212
C -2.905235492957746 0.902300704225353 0.41966704225352136
C -2.7423854929577463 1.056130704225354 1.8024770422535212
C -1.8861754929577463 1.3499307042253532 -0.4326129577464788
C -1.5304554929577463 1.5279207042253526 2.3254170422535214
H -3.5237954929577464 0.7301007042253529 2.484817042253521
C -0.6776454929577462 1.8010507042253527 0.08546704225352131
H -1.9759254929577463 1.2426607042253535 -1.5115229577464788
C -0.4680254929577463 1.8513207042253539 1.4698070422535212
H -1.3950654929577464 1.5446707042253527 3.404047042253521
H 0.1461845070422536 1.9972507042253538 -0.6030529577464789
C -1.8679654929577463 -2.0866092957746467 -0.08765295774647863
C -0.6628654929577462 -1.814079295774647 0.5787970422535212
C -1.8438954929577462 -2.213429295774647 -1.4808029577464787
C 0.5129345070422537 -1.5763292957746469 -0.13022295774647863
H -0.6401854929577462 -1.7032692957746463 1.6609470422535213
C -0.6547954929577462 -1.9962392957746466 -2.1933129577464787
H -2.7578654929577464 -2.4351492957746466 -2.026182957746479
C 0.5308845070422537 -1.645769295774647 -1.5261029577464789
H 1.4044045070422537 -1.2610992957746463 0.41551704225352126
H -0.6795654929577464 -2.0467992957746466 -3.2793129577464786
C 1.7843245070422535 -1.2521692957746469 -2.2771629577464787
H 1.4981245070422535 -0.9384492957746469 -3.290282957746479
H 2.241984507042254 -0.38631929577464685 -1.8135029577464787
C 0.9385645070422537 2.0647807042253534 1.9815670422535212
H 1.0508945070422537 1.5807407042253532 2.9609770422535213
H 1.6053245070422537 1.5496207042253536 1.3096170422535214
C 3.9676945070422533 -1.6881692957746468 -3.314052957746479
H 4.795084507042254 -2.398849295774647 -3.4044129577464783
H 3.548404507042253 -1.4816192957746468 -4.303802957746479
H 4.307714507042253 -0.7637192957746466 -2.851282957746479
C 2.344694507042253 -3.565079295774647 -3.101282957746479
H 1.6334345070422536 -4.047909295774646 -2.4251929577464786
H 1.8561845070422536 -3.293109295774647 -4.041792957746479
H 3.1808045070422537 -4.243519295774647 -3.298122957746479
C 3.5156645070422536 -2.648489295774647 -1.1110629577464786
H 3.9311845070422535 -1.748249295774647 -0.6771029577464787
H 2.767184507042254 -3.1044092957746465 -0.45972295774647876
H 4.319224507042254 -3.371819295774647 -1.2863129577464787
C 2.963994507042253 3.381090704225353 2.401027042253521
H 3.3337945070422537 4.369820704225353 2.6912870422535216
H 3.120994507042253 2.671350704225353 3.2183370422535216
H 3.4665445070422534 3.0664207042253535 1.4881370422535212
C 1.2973745070422538 4.282440704225354 0.8488370422535213
H 1.7592145070422538 3.7367207042253527 0.02653704225352116
H 0.23311450704225378 4.4484607042253534 0.6605570422535213
H 1.7921845070422535 5.251370704225354 0.9736770422535213
C 0.7724845070422537 4.194670704225353 3.2772470422535216
H -0.2956954929577462 4.278220704225354 3.057857042253521
H 0.9298945070422537 3.612620704225354 4.190337042253521
H 1.2046345070422537 5.193640704225353 3.3918370422535213
N 2.876084507042253 -2.324759295774647 -2.4576629577464786
N 1.4527845070422536 3.504690704225353 2.1388470422535213
C -3.593905492957746 -3.637819295774647 0.8297870422535213
H -2.8952554929577463 -1.8680692957746468 1.7595270422535212
H -5.022615492957747 -1.2402792957746467 1.1579970422535213
H -4.898275492957747 -1.7933092957746464 -0.48931295774647876
H -3.883675492957746 0.07871070422535364 -1.2758929577464788
H -3.8751654929577466 -4.038529295774646 -0.1505529577464788
H -4.4603554929577465 -3.7321892957746465 1.4932570422535212
H -2.7953554929577464 -4.271929295774647 1.2313670422535212
H -5.648775492957746 1.147700704225353 0.9733970422535213
H -6.189795492957747 0.5254307042253537 -0.5943629577464788
H -5.2178854929577465 2.002970704225354 -0.5139729577464787
C 3.6710445070422537 1.0263707042253536 -0.27764295774647874
O 2.7356545070422538 1.6631507042253526 -0.7327029577464788
O 3.650814507042253 0.3883007042253537 0.7790570422535212
O 4.756604507042254 0.8696707042253538 -0.8334829577464786
O -8.534360213726577 5.520160307351244 -4.229444649219815
H -8.465394480233563 4.649519148219321 -3.8096887004481585
H -7.870787027681667 6.055329377562238 -3.7687640251952024
O -1.1614825574587802 -2.2715940733552134 -9.676034127785348
H -1.2937148544777142 -3.0463704284775828 -10.242782375306586
H -1.1688880900976284 -2.6347390040424647 -8.777684050308597
O 1.7662545212789793 5.300015786574349 -0.7859728213813233
H 2.438369148408426 5.998001740510875 -0.7926730457031138
H 1.1154809388004834 5.595447471741881 -1.440324262158506
O 8.637221025126879 -1.4801128225473335 1.7659405307136091
H 8.932038175106342 -2.0111193098519617 1.0109025744369817
H 8.608855883096311 -2.1122395288174607 2.499815990337151
O 0.4902054200779933 -0.8768278683841881 -11.004424366311993
H 1.2459293479187705 -0.8844399891428636 -10.397966818410687
H -0.2808734570742635 -0.8888409756113393 -10.41769189340431
O 5.282027645990818 10.26436947097374 3.2554608279456003
H 5.458945180168418 10.845021341705195 2.500139076625952
H 4.364963184915073 9.980824748904794 3.1229575860279177
O -3.3892708234043196 -7.999939215634048 -10.111573366182956
H -3.7146598044992976 -8.178398755958206 -11.006694341442312
H -4.189457520847088 -8.010670781768553 -9.56517788027194
O 7.9715694672620305 3.7815073197702853 -6.691843686827808
H 7.999114015088456 3.870097437328176 -7.6563956272934925
H 8.34981352702392 4.61336593232126 -6.369501284591287
O 10.290455297422035 3.8217409636512034 -12.166603378279543
H 10.215459920129874 4.084388715487218 -13.096312584827642
H 10.277301640338749 2.853251710755841 -12.195195206334327
O 7.008705340791311 9.142883457252157 -2.6215825771970485
H 6.1354133512248765 9.297769388426595 -2.2312765355024204
H 6.9143502638749705 9.450147886693912 -3.5357202222811703
O -0.17930796122972859 5.8250828093229625 4.9474528244365
H -1.102691262200007 5.619861715762408 5.1577263109892355
H 0.31759306937095166 5.460743642186211 5.695321985037523
O 2.573224273768443 5.958376102801296 -3.559662152024188
H 2.071538827427366 6.4393071373305615 -4.234928329065631
H 2.797044319076402 6.63789428134186 -2.9061167621305275
O -3.1936500869584297 8.759837278407616 -3.4384464762909235
H -2.4364262560964196 8.616088378320034 -4.0257417006868605
H -3.147954859914411 9.703794737868039 -3.224394601142821
O -14.72587431730134 2.6666412936927046 2.7241992584754655
H -15.297413187810633 3.2989751871331334 2.2632605167717186
H -14.593252741174574 3.0645793950548432 3.5977086913552414
O -5.158123196241355 -11.222018835994545 -3.280301635594986
H -5.379602143649022 -12.1653656516959 -3.283650973037629
H -5.198474942294475 -10.968803521986503 -4.214761739420865
O -3.7403821398278905 -6.8374340949117975 3.755302964679533
H -3.216797824087789 -7.458887722535404 3.227456197213413
H -4.513765669165282 -7.354428203613843 4.02651681465224
O -3.130948039971508 8.409045615888303 -6.223331857407223
H -2.4086333584983213 8.10918114255638 -6.795442122532452
H -2.6804666237583716 8.741945848350394 -5.432632247458355
O -1.03417445568023 -1.7357449505183267 6.220634895055966
H -0.3741270305242639 -2.1684029941761795 6.782873074747757
H -0.5845170809855984 -1.632957117215555 5.368458357589899
O -2.055306705092594 -4.030545461774287 -4.675678564332816
H -2.1913323987170363 -4.326550800381797 -5.588282096590851
H -1.1431472096112154 -4.291407655473879 -4.478503730742439
O 3.731250781270476 -7.536300221758965 -11.051718637918633
H 3.4388182697992717 -8.217966875798929 -11.675241817844293
H 4.3629977897456484 -7.007749164813175 -11.562102260093322
O 4.773612971678354 3.394318283658229 -1.015589432617982
H 5.720690221460424 3.39510366167604 -1.2205563153737107
H 4.35859845774767 3.0674925747943425 -1.8279377898838138
O 7.5383906740553615 -2.9942403961871857 7.641009359391323
H 7.421619199842082 -3.5001639075974094 6.822857062864321
H 7.461223846752899 -3.659949920165011 8.340893674652987
O -9.345088345907197 -2.5206989792987367 -1.570398878183262
H -9.452102861630447 -2.728820425216496 -2.510718352656497
H -9.444642678458077 -3.377203462757053 -1.1283005305431117
O -1.1254922747960592 3.283521916567242 -13.099385528014734
H -1.5581926754637916 3.9268217252176134 -13.680679839317005
H -1.4859954050663031 3.4813278871869193 -12.221961892960056
C 6.098203030049525 -9.13996037547527 -3.6934703375623466
O 5.692858677293083 -9.894483194678747 -4.529657833456478
O 6.503547382805969 -8.385437556271796 -2.857282841668215