146

C -5.3564454929577465 1.0091607042253532 -0.0734429577464788
C -4.079135492957747 0.16955070422535368 -0.19788295774647868
C -4.333545492957747 -1.2789292957746463 0.3017270422535212
C -3.1403854929577464 -2.1745492957746464 0.7330270422535212
C -2.905235492957746 0.902300704225353 0.41966704225352136
C -2.7423854929577463 1.056130704225354 1.8024770422535212
C -1.8861754929577463 1.3499307042253532 -0.4326129577464788
C -1.5304554929577463 1.5279207042253526 2.3254170422535214
H -3.5237954929577464 0.7301007042253529 2.484817042253521
C -0.6776454929577462 1.8010507042253527 0.08546704225352131
H -1.9759254929577463 1.2426607042253535 -1.5115229577464788
C -0.4680254929577463 1.8513207042253539 1.4698070422535212
H -1.3950654929577464 1.5446707042253527 3.404047042253521
H 0.1461845070422536 1.9972507042253538 -0.6030529577464789
C -1.8679654929577463 -2.0866092957746467 -0.08765295774647863
C -0.6628654929577462 -1.814079295774647 0.5787970422535212
C -1.8438954929577462 -2.213429295774647 -1.4808029577464787
C 0.5129345070422537 -1.5763292957746469 -0.13022295774647863
H -0.6401854929577462 -1.7032692957746463 1.6609470422535213
C -0.6547954929577462 -1.9962392957746466 -2.1933129577464787
H -2.7578654929577464 -2.4351492957746466 -2.026182957746479
C 0.5308845070422537 -1.645769295774647 -1.5261029577464789
H 1.4044045070422537 -1.2610992957746463 0.41551704225352126
H -0.6795654929577464 -2.0467992957746466 -3.2793129577464786
C 1.7843245070422535 -1.2521692957746469 -2.2771629577464787
H 1.4981245070422535 -0.9384492957746469 -3.290282957746479
H 2.241984507042254 -0.38631929577464685 -1.8135029577464787
C 0.9385645070422537 2.0647807042253534 1.9815670422535212
H 1.0508945070422537 1.5807407042253532 2.9609770422535213
H 1.6053245070422537 1.5496207042253536 1.3096170422535214
C 3.9676945070422533 -1.6881692957746468 -3.314052957746479
H 4.795084507042254 -2.398849295774647 -3.4044129577464783
H 3.548404507042253 -1.4816192957746468 -4.303802957746479
H 4.307714507042253 -0.7637192957746466 -2.851282957746479
C 2.344694507042253 -3.565079295774647 -3.101282957746479
H 1.6334345070422536 -4.047909295774646 -2.4251929577464786
H 1.8561845070422536 -3.293109295774647 -4.041792957746479
H 3.1808045070422537 -4.243519295774647 -3.298122957746479
C 3.5156645070422536 -2.648489295774647 -1.1110629577464786
H 3.9311845070422535 -1.748249295774647 -0.6771029577464787
H 2.767184507042254 -3.1044092957746465 -0.45972295774647876
H 4.319224507042254 -3.371819295774647 -1.2863129577464787
C 2.963994507042253 3.381090704225353 2.401027042253521
H 3.3337945070422537 4.369820704225353 2.6912870422535216
H 3.120994507042253 2.671350704225353 3.2183370422535216
H 3.4665445070422534 3.0664207042253535 1.4881370422535212
C 1.2973745070422538 4.282440704225354 0.8488370422535213
H 1.7592145070422538 3.7367207042253527 0.02653704225352116
H 0.23311450704225378 4.4484607042253534 0.6605570422535213
H 1.7921845070422535 5.251370704225354 0.9736770422535213
C 0.7724845070422537 4.194670704225353 3.2772470422535216
H -0.2956954929577462 4.278220704225354 3.057857042253521
H 0.9298945070422537 3.612620704225354 4.190337042253521
H 1.2046345070422537 5.193640704225353 3.3918370422535213
N 2.876084507042253 -2.324759295774647 -2.4576629577464786
N 1.4527845070422536 3.504690704225353 2.1388470422535213
C -3.593905492957746 -3.637819295774647 0.8297870422535213
H -2.8952554929577463 -1.8680692957746468 1.7595270422535212
H -5.022615492957747 -1.2402792957746467 1.1579970422535213
H -4.898275492957747 -1.7933092957746464 -0.48931295774647876
H -3.883675492957746 0.07871070422535364 -1.2758929577464788
H -3.8751654929577466 -4.038529295774646 -0.1505529577464788
H -4.4603554929577465 -3.7321892957746465 1.4932570422535212
H -2.7953554929577464 -4.271929295774647 1.2313670422535212
H -5.648775492957746 1.147700704225353 0.9733970422535213
H -6.189795492957747 0.5254307042253537 -0.5943629577464788
H -5.2178854929577465 2.002970704225354 -0.5139729577464787
C 3.6710445070422537 1.0263707042253536 -0.27764295774647874
O 2.7356545070422538 1.6631507042253526 -0.7327029577464788
O 3.650814507042253 0.3883007042253537 0.7790570422535212
O 4.756604507042254 0.8696707042253538 -0.8334829577464786
O 11.540411356524762 2.476932588687795 -0.8361386950504599
H 11.748092729408823 2.8531198491673564 -1.7046540658470142
H 12.05058710085921 1.6535365718516175 -0.8096499493060539
O 0.6709866776390352 -11.342949103573224 4.053761290618722
H 0.9167670741897287 -11.595393472470487 4.956441297145646
H 1.5208637983686053 -11.241542157604531 3.59946242943842
O 9.46976369163476 -1.3777071428010808 -3.2337011209439885
H 9.951421238719577 -1.8669281799661785 -3.9175403864379676
H 8.739361702259604 -1.967781016975401 -2.994352627667507
O -10.392356108539168 -1.8915046191851252 -0.9093373045517398
H -10.916282289205231 -2.2207635822096274 -1.6550297675555576
H -10.169183140598921 -2.690803268215078 -0.4090599411425657
O 0.2804974235421521 -1.463535403552044 -5.602464454243954
H 0.8596395376073441 -2.1574407703812613 -5.253097726432461
H 0.48675305764369087 -1.4410992682706565 -6.548993469929689
O 0.4173233288623418 2.7305093883714466 -4.997502044179923
H -0.4259797672631719 2.7265920206558705 -4.520226548061272
H 0.28954740253076516 3.392979563621447 -5.693036747738516
O -7.284793007597511 1.504594242684529 -0.05990384596249587
H -7.836099850915414 2.1423964346184468 -0.5376448692953693
H -7.757257869291517 1.365703897068375 0.7746309769532944
O 0.9317262148891379 -10.670731903716932 -6.083676984020717
H 0.9807120407529988 -10.755862778953919 -5.119664287088866
H 1.8543140609191617 -10.552559903859894 -6.35539188811593
O 6.601591360103849 -4.686431675221195 -3.0690950037108053
H 6.416026982025928 -4.74557923003373 -2.1198664826220988
H 6.242913532872999 -5.511288172141832 -3.429544611895878
O -9.19476847198597 9.053280082385093 5.391703984197223
H -9.861344241002584 8.41074325188889 5.105713560378867
H -8.769181728864652 8.626929210231403 6.150691996087515
O -3.1859457080830174 -12.831090442927668 4.343729215494272
H -3.708137353070767 -12.234312287898119 4.900630532142489
H -2.521647008796309 -12.25280841905546 3.939675898106266
O 2.5246773606494646 4.677763463327181 11.51740936283312
H 2.473989705289434 4.49636681315655 12.467932047360417
H 2.6916197189937927 5.631078507563579 11.469632593132895
O -9.01334916433892 -4.700009215187664 6.236646451842478
H -9.14878306033692 -4.543280610686269 7.18325152326659
H -8.776494409000838 -3.8280531314006563 5.8865688074254665
O 2.023950430508555 -4.1262498788838595 7.185265438574948
H 1.8086573267100015 -3.1999819758641523 6.999136429035168
H 2.315611165943353 -4.117637483293565 8.109290214405029
O -8.635638377966934 -3.910616723956495 -4.735447903325818
H -8.687702089554694 -3.162155167692423 -5.348686866235441
H -9.331709985521863 -4.511860428874114 -5.040328648458781
O -0.9945067094286881 8.45588019546754 -8.682387058665192
H -0.3715557646563563 7.729930381358797 -8.83697148447433
H -1.3614158781588501 8.266768940278324 -7.805702087103287
O 6.22234587268234 1.007320884829718 17.078319163689912
H 6.941341184437518 0.5362907074682957 17.525693358954843
H 5.430930700600745 0.4963136384157818 17.305245503746555
O 1.7905879490222074 -0.7672647597451348 6.240921761644949
H 1.0323210985325493 -0.42569732995408804 5.743598495293541
H 1.4298755583872733 -0.949832028697392 7.121556593939099
O -3.93600617523888 -10.261765109499907 6.429884485235792
H -4.281655792846696 -10.188181095905652 5.527621169074191
H -2.9742310877580866 -10.270500219578713 6.312095168007016
O 2.7852245059150875 -7.929006978047064 7.35484664963716
H 3.150454961920695 -8.705538670333395 7.804927311053384
H 2.906944381845282 -8.125152335809538 6.413744521952938
O 2.8148718108458812 3.0177232620763403 8.955397481346958
H 3.349094018327373 3.824975558402974 8.911605701193835
H 2.0301958475855875 3.2273793009235066 8.426918605367565
O 11.447469585238231 -1.0946502152839508 2.9452082004309936
H 11.933553074098661 -1.6420548638467216 2.3103551863488816
H 10.625167974222947 -0.8739292463365556 2.482537411760918
O 7.39458125228076 -8.286007573201145 3.362002469497095
H 7.825498419666154 -7.568985465688499 2.8729656108752977
H 6.470971464841531 -8.245205653728753 3.0717575587513073
O 6.298882671558638 -3.165442088679712 7.305951192685274
H 7.077722263322416 -2.863625168489221 7.797156642459561
H 5.630451320415789 -2.487860480691789 7.48773303343359
C 1.5089321322457534 -4.52226150256674 2.6311402336939165
O 1.494904042028818 -4.684189772039257 3.817057897585681
O 1.5229602224626893 -4.360333233094222 1.4452225698021515