146

C -5.3564454929577465 1.0091607042253532 -0.0734429577464788
C -4.079135492957747 0.16955070422535368 -0.19788295774647868
C -4.333545492957747 -1.2789292957746463 0.3017270422535212
C -3.1403854929577464 -2.1745492957746464 0.7330270422535212
C -2.905235492957746 0.902300704225353 0.41966704225352136
C -2.7423854929577463 1.056130704225354 1.8024770422535212
C -1.8861754929577463 1.3499307042253532 -0.4326129577464788
C -1.5304554929577463 1.5279207042253526 2.3254170422535214
H -3.5237954929577464 0.7301007042253529 2.484817042253521
C -0.6776454929577462 1.8010507042253527 0.08546704225352131
H -1.9759254929577463 1.2426607042253535 -1.5115229577464788
C -0.4680254929577463 1.8513207042253539 1.4698070422535212
H -1.3950654929577464 1.5446707042253527 3.404047042253521
H 0.1461845070422536 1.9972507042253538 -0.6030529577464789
C -1.8679654929577463 -2.0866092957746467 -0.08765295774647863
C -0.6628654929577462 -1.814079295774647 0.5787970422535212
C -1.8438954929577462 -2.213429295774647 -1.4808029577464787
C 0.5129345070422537 -1.5763292957746469 -0.13022295774647863
H -0.6401854929577462 -1.7032692957746463 1.6609470422535213
C -0.6547954929577462 -1.9962392957746466 -2.1933129577464787
H -2.7578654929577464 -2.4351492957746466 -2.026182957746479
C 0.5308845070422537 -1.645769295774647 -1.5261029577464789
H 1.4044045070422537 -1.2610992957746463 0.41551704225352126
H -0.6795654929577464 -2.0467992957746466 -3.2793129577464786
C 1.7843245070422535 -1.2521692957746469 -2.2771629577464787
H 1.4981245070422535 -0.9384492957746469 -3.290282957746479
H 2.241984507042254 -0.38631929577464685 -1.8135029577464787
C 0.9385645070422537 2.0647807042253534 1.9815670422535212
H 1.0508945070422537 1.5807407042253532 2.9609770422535213
H 1.6053245070422537 1.5496207042253536 1.3096170422535214
C 3.9676945070422533 -1.6881692957746468 -3.314052957746479
H 4.795084507042254 -2.398849295774647 -3.4044129577464783
H 3.548404507042253 -1.4816192957746468 -4.303802957746479
H 4.307714507042253 -0.7637192957746466 -2.851282957746479
C 2.344694507042253 -3.565079295774647 -3.101282957746479
H 1.6334345070422536 -4.047909295774646 -2.4251929577464786
H 1.8561845070422536 -3.293109295774647 -4.041792957746479
H 3.1808045070422537 -4.243519295774647 -3.298122957746479
C 3.5156645070422536 -2.648489295774647 -1.1110629577464786
H 3.9311845070422535 -1.748249295774647 -0.6771029577464787
H 2.767184507042254 -3.1044092957746465 -0.45972295774647876
H 4.319224507042254 -3.371819295774647 -1.2863129577464787
C 2.963994507042253 3.381090704225353 2.401027042253521
H 3.3337945070422537 4.369820704225353 2.6912870422535216
H 3.120994507042253 2.671350704225353 3.2183370422535216
H 3.4665445070422534 3.0664207042253535 1.4881370422535212
C 1.2973745070422538 4.282440704225354 0.8488370422535213
H 1.7592145070422538 3.7367207042253527 0.02653704225352116
H 0.23311450704225378 4.4484607042253534 0.6605570422535213
H 1.7921845070422535 5.251370704225354 0.9736770422535213
C 0.7724845070422537 4.194670704225353 3.2772470422535216
H -0.2956954929577462 4.278220704225354 3.057857042253521
H 0.9298945070422537 3.612620704225354 4.190337042253521
H 1.2046345070422537 5.193640704225353 3.3918370422535213
N 2.876084507042253 -2.324759295774647 -2.4576629577464786
N 1.4527845070422536 3.504690704225353 2.1388470422535213
C -3.593905492957746 -3.637819295774647 0.8297870422535213
H -2.8952554929577463 -1.8680692957746468 1.7595270422535212
H -5.022615492957747 -1.2402792957746467 1.1579970422535213
H -4.898275492957747 -1.7933092957746464 -0.48931295774647876
H -3.883675492957746 0.07871070422535364 -1.2758929577464788
H -3.8751654929577466 -4.038529295774646 -0.1505529577464788
H -4.4603554929577465 -3.7321892957746465 1.4932570422535212
H -2.7953554929577464 -4.271929295774647 1.2313670422535212
H -5.648775492957746 1.147700704225353 0.9733970422535213
H -6.189795492957747 0.5254307042253537 -0.5943629577464788
H -5.2178854929577465 2.002970704225354 -0.5139729577464787
C 3.6710445070422537 1.0263707042253536 -0.27764295774647874
O 2.7356545070422538 1.6631507042253526 -0.7327029577464788
O 3.650814507042253 0.3883007042253537 0.7790570422535212
O 4.756604507042254 0.8696707042253538 -0.8334829577464786
O 14.187990094399336 2.9161052153170957 3.295607662149141
H 14.042482344287881 3.112351210998826 2.3579070912117057
H 13.396228644450652 2.4224038713099008 3.5570167928248937
O -1.300033343490857 10.73976862421395 0.721928609846663
H -0.9732196168730538 11.549061236724505 1.1428865796370307
H -0.5905877345915669 10.491038591227415 0.11055127709377877
O 10.08561619902932 5.480084177202064 -10.525265543732335
H 11.014186119666723 5.4912087700970105 -10.24849577872834
H 9.887800630947503 4.538852324311357 -10.643221232142839
O 0.15015724055226443 -4.757122743140323 2.832436817353455
H 0.15954576623531125 -4.492553627199005 1.900298203532781
H -0.7461691382488653 -5.098740527404143 2.9697621844198894
O -10.89034168764771 10.177383920406182 -0.1969540781199024
H -11.449856422557946 10.721239551185539 -0.7715249364027743
H -10.339266189752484 10.822222532819207 0.2715124669617861
O -10.157005429134943 -6.355578223990579 2.333992079920775
H -9.61534930397448 -7.091657144373018 2.011868156647793
H -9.676428110295484 -5.566250173970477 2.0424983160620247
O -3.51316090071371 10.24675522808694 12.114079884884545
H -3.464640619874137 9.956538795771598 13.037328259733592
H -3.501518436270781 9.420451315231144 11.608067789257474
O -4.501229735436337 4.241909521125151 -0.037854921571215616
H -4.665155001758944 4.695196944597011 0.8027557943272345
H -3.5491452078693024 4.062096553327549 -0.025037227579118415
O 4.574466951303411 -11.338696883105317 5.104234498271943
H 4.404237469552595 -11.882966187051949 5.887662992280361
H 4.763173974170758 -10.459898362417396 5.466263176496842
O -1.563678741967267 -1.394149676914935 6.005385246857519
H -1.5241910750215715 -1.4144315568576558 6.973371159154374
H -2.2664552034014904 -0.7553170343355529 5.8131352941162096
O -10.527942459188882 -8.6768832510188 -3.00813981634039
H -10.4512739409929 -8.223083532721217 -2.1554059124227205
H -9.609395308469919 -8.842222291703596 -3.2687085746969977
O 3.160833760692749 -11.779831506475134 -2.8879953907204654
H 3.531899026737462 -12.099725051562134 -3.724025321432781
H 3.6397419254740973 -10.954370202196676 -2.7199997087977685
O -1.8657611649559525 7.365490146461663 0.10275936704782751
H -1.245802029291106 7.542485702711255 0.8261476445818188
H -2.617795051898504 7.946669219211532 0.2915392986816773
O -11.91827281292411 -1.7570661509689498 -5.700762766946349
H -12.494219448665856 -1.7883380578554546 -6.479399330124221
H -11.352700807422538 -0.9862744727862227 -5.858783144547417
O 8.291327833870795 8.265269819816462 2.356366974266223
H 7.797501695655971 8.053710335441878 3.1628071063820515
H 7.792441957459924 8.996043622677032 1.9613423222880793
O -0.4356456707369383 -9.895043061716786 -0.47836315092670123
H -1.0834801711446427 -10.20235419625578 -1.1301588885392277
H 0.23253347786510092 -9.437316015585095 -1.010326045227619
O 6.024559140864213 10.357461929866814 4.308121276529202
H 6.0445073000976715 10.266793966023107 3.3435753998724014
H 6.759073883972185 9.802531955519054 4.610615507924489
O -7.68411478745341 5.254822319014355 9.398682673908262
H -7.190054486480643 4.993812996438556 10.19035552896344
H -7.350357706933586 4.66216987904234 8.708515128381741
O -2.1649566336767774 -8.588874469835673 -3.129560455744363
H -2.189378544625014 -8.637753590220257 -4.097021958211549
H -1.4178156804835413 -8.000482948634204 -2.9437170858337796
O 1.5911781252230328 7.526192638704945 0.9999832763293058
H 2.3169819400871954 7.013855020564546 1.386876471238253
H 1.2170912773280158 6.933576942562763 0.33078404499540237
O 3.8213049153922185 0.7669012168674172 2.3279431801922676
H 3.6760592089057633 1.0065632701663434 3.2555385347816466
H 3.460465856925513 -0.12973042234918775 2.2585975116858275
O -0.47714384073186045 -5.00125181534235 8.93437878816987
H -0.6285008823641358 -5.943358106992067 8.765576720403072
H -0.7170636633092307 -4.8889740410612905 9.866470052176208
O 8.031996915788168 5.332932792042183 -2.136998545630047
H 7.539625024753504 4.60596234221475 -2.546939081435728
H 7.44864707959012 6.099453846090585 -2.2424043642940825
O 1.2157717675307413 -5.986540508468156 1.941517563457533
H 0.5038780331050292 -6.643835295719541 1.953274707565333
H 1.8925861493863327 -6.364115928862043 2.523171273776494
C -8.876758041321459 -0.8573840909929631 5.832455540197705
O -9.230569137457174 -0.6475980416141383 4.708344434017684
O -8.522946945185744 -1.067170140371787 6.956566646377725