146

C -5.3564454929577465 1.0091607042253532 -0.0734429577464788
C -4.079135492957747 0.16955070422535368 -0.19788295774647868
C -4.333545492957747 -1.2789292957746463 0.3017270422535212
C -3.1403854929577464 -2.1745492957746464 0.7330270422535212
C -2.905235492957746 0.902300704225353 0.41966704225352136
C -2.7423854929577463 1.056130704225354 1.8024770422535212
C -1.8861754929577463 1.3499307042253532 -0.4326129577464788
C -1.5304554929577463 1.5279207042253526 2.3254170422535214
H -3.5237954929577464 0.7301007042253529 2.484817042253521
C -0.6776454929577462 1.8010507042253527 0.08546704225352131
H -1.9759254929577463 1.2426607042253535 -1.5115229577464788
C -0.4680254929577463 1.8513207042253539 1.4698070422535212
H -1.3950654929577464 1.5446707042253527 3.404047042253521
H 0.1461845070422536 1.9972507042253538 -0.6030529577464789
C -1.8679654929577463 -2.0866092957746467 -0.08765295774647863
C -0.6628654929577462 -1.814079295774647 0.5787970422535212
C -1.8438954929577462 -2.213429295774647 -1.4808029577464787
C 0.5129345070422537 -1.5763292957746469 -0.13022295774647863
H -0.6401854929577462 -1.7032692957746463 1.6609470422535213
C -0.6547954929577462 -1.9962392957746466 -2.1933129577464787
H -2.7578654929577464 -2.4351492957746466 -2.026182957746479
C 0.5308845070422537 -1.645769295774647 -1.5261029577464789
H 1.4044045070422537 -1.2610992957746463 0.41551704225352126
H -0.6795654929577464 -2.0467992957746466 -3.2793129577464786
C 1.7843245070422535 -1.2521692957746469 -2.2771629577464787
H 1.4981245070422535 -0.9384492957746469 -3.290282957746479
H 2.241984507042254 -0.38631929577464685 -1.8135029577464787
C 0.9385645070422537 2.0647807042253534 1.9815670422535212
H 1.0508945070422537 1.5807407042253532 2.9609770422535213
H 1.6053245070422537 1.5496207042253536 1.3096170422535214
C 3.9676945070422533 -1.6881692957746468 -3.314052957746479
H 4.795084507042254 -2.398849295774647 -3.4044129577464783
H 3.548404507042253 -1.4816192957746468 -4.303802957746479
H 4.307714507042253 -0.7637192957746466 -2.851282957746479
C 2.344694507042253 -3.565079295774647 -3.101282957746479
H 1.6334345070422536 -4.047909295774646 -2.4251929577464786
H 1.8561845070422536 -3.293109295774647 -4.041792957746479
H 3.1808045070422537 -4.243519295774647 -3.298122957746479
C 3.5156645070422536 -2.648489295774647 -1.1110629577464786
H 3.9311845070422535 -1.748249295774647 -0.6771029577464787
H 2.767184507042254 -3.1044092957746465 -0.45972295774647876
H 4.319224507042254 -3.371819295774647 -1.2863129577464787
C 2.963994507042253 3.381090704225353 2.401027042253521
H 3.3337945070422537 4.369820704225353 2.6912870422535216
H 3.120994507042253 2.671350704225353 3.2183370422535216
H 3.4665445070422534 3.0664207042253535 1.4881370422535212
C 1.2973745070422538 4.282440704225354 0.8488370422535213
H 1.7592145070422538 3.7367207042253527 0.02653704225352116
H 0.23311450704225378 4.4484607042253534 0.6605570422535213
H 1.7921845070422535 5.251370704225354 0.9736770422535213
C 0.7724845070422537 4.194670704225353 3.2772470422535216
H -0.2956954929577462 4.278220704225354 3.057857042253521
H 0.9298945070422537 3.612620704225354 4.190337042253521
H 1.2046345070422537 5.193640704225353 3.3918370422535213
N 2.876084507042253 -2.324759295774647 -2.4576629577464786
N 1.4527845070422536 3.504690704225353 2.1388470422535213
C -3.593905492957746 -3.637819295774647 0.8297870422535213
H -2.8952554929577463 -1.8680692957746468 1.7595270422535212
H -5.022615492957747 -1.2402792957746467 1.1579970422535213
H -4.898275492957747 -1.7933092957746464 -0.48931295774647876
H -3.883675492957746 0.07871070422535364 -1.2758929577464788
H -3.8751654929577466 -4.038529295774646 -0.1505529577464788
H -4.4603554929577465 -3.7321892957746465 1.4932570422535212
H -2.7953554929577464 -4.271929295774647 1.2313670422535212
H -5.648775492957746 1.147700704225353 0.9733970422535213
H -6.189795492957747 0.5254307042253537 -0.5943629577464788
H -5.2178854929577465 2.002970704225354 -0.5139729577464787
C 3.6710445070422537 1.0263707042253536 -0.27764295774647874
O 2.7356545070422538 1.6631507042253526 -0.7327029577464788
O 3.650814507042253 0.3883007042253537 0.7790570422535212
O 4.756604507042254 0.8696707042253538 -0.8334829577464786
O -5.747313119809645 0.7077548130639515 -5.013471843353754
H -5.342243701475613 0.9181879608476058 -5.86822561698941
H -6.373080004615786 -0.00279687059132927 -5.219612705471535
O 5.958116014544769 -0.9231230778778363 -1.173462367145837
H 6.135865543736056 -0.024117099794877084 -0.8585644263088432
H 5.783996633808808 -1.4248714256009194 -0.36297302044886814
O -4.687661763722861 9.809484509288538 1.7280975920118502
H -4.194288916580362 9.259465141367464 2.35501806983516
H -5.537153234980366 9.961969633102726 2.16863643431311
O 0.2862892268014141 10.058302158782064 -10.712517388755481
H 0.5284474062995921 10.02076885300725 -11.650023668179648
H 1.0622318340280792 10.4518691002447 -10.285926159147989
O 10.354312944419263 -2.6028770926395266 7.497913586687457
H 10.720147905577743 -2.7313515637078263 8.385960009110237
H 10.89038805347733 -1.8868305818139137 7.125270572419316
O -1.1433868502177185 1.5213834075033503 5.94105653575742
H -0.7804155862186781 1.2709802565283088 5.078202272053108
H -1.6950699919708407 2.294152898188791 5.74757534889118
O -8.750484520746621 1.6589241691006382 -6.38260228469921
H -8.864438086247853 1.3741333538526144 -7.301773723202346
H -7.805994387772289 1.86527640371114 -6.316882513812683
O 2.960758971569231 2.3440342433063623 7.466370973920467
H 3.035131005805974 2.4190947952090296 6.5031461450401284
H 2.565345873632611 3.1862957540161716 7.7369369988700045
O 9.728176161604317 -6.888582862317504 5.958533482126599
H 9.747447643563172 -6.834382672923073 4.991239159620403
H 10.146583869024225 -6.06374278692502 6.247559060057235
O 8.26002971318536 -2.363277353477711 -9.680021017926109
H 8.827791223961567 -2.6675057974891843 -8.956101631781852
H 7.595170912128316 -1.8122864042942668 -9.240323743798879
O 6.889112762008747 1.7423750963398548 -9.050177277611922
H 6.7033835250161085 1.7239658187026703 -10.00103641855921
H 6.022722102281297 1.601540350985453 -8.63969616533269
O 8.77354036590231 -0.46272719773003346 7.930248934724935
H 9.721882952079648 -0.6514651097812293 7.993428810453189
H 8.387506746726302 -0.9524478505513896 8.671945416694546
O -6.136653296181392 -7.6145825973906085 -5.978835036342668
H -6.147964653896129 -7.658907158399852 -6.946757937909724
H -6.608562484797095 -8.414477147820387 -5.7023709876983455
O 4.472806848957194 8.943349678411998 0.9011490780913247
H 4.725708480562127 9.282886704389082 0.02952832935813854
H 3.964279321364976 8.142911565849184 0.7019995715947531
O -2.883562183280209 -4.3828052013097425 -8.553822604180056
H -3.1359594334044907 -4.407540956623058 -9.48905045205392
H -3.374692164947701 -5.119079354453559 -8.159292938857353
O -4.96737052886532 -9.52230064250261 -1.5895006746497344
H -4.1167663310102585 -9.086608160512585 -1.749537909781803
H -5.593986242069242 -8.788125813955201 -1.5040488555156601
O 11.22743997201044 -6.09833664175329 3.5594494834410573
H 10.916013718872268 -5.652867302684225 4.361657756712837
H 11.948296536762884 -6.665679751072938 3.8716185941179773
O -7.577469474501976 5.199816109813103 0.2905644065975045
H -6.703718330901788 5.149596568659611 -0.12537344169679976
H -7.992899203197337 4.353863290240147 0.06530031298144123
O -4.267485842566816 -8.917605975625516 -8.611157455365499
H -3.940030507528387 -8.393329356955787 -9.357397622852552
H -4.4060043515262155 -8.264308840392395 -7.909033947660579
O -0.42754925925455545 8.972201771893687 -3.139590081937631
H -0.16090027541772023 8.727187633327512 -4.0383858030119235
H -0.8351455415181221 8.166260019859838 -2.7884702913909756
O -4.3338226017806205 -4.801351280378682 -4.661790921414003
H -4.591766651077224 -4.553117048603337 -5.562241914254466
H -4.872421663006036 -5.584054482530532 -4.471400026441735
O -0.54537371740219 -4.944701325289253 -6.727539078576372
H -0.7704717747480833 -4.815815018400883 -5.793897529920902
H -1.380904649784719 -4.789955054893751 -7.193268181307416
O 1.5167257342902418 -6.899737667718456 4.615863276567071
H 2.007821226398084 -6.6509200173241885 3.818440959733868
H 2.188802086366813 -7.295997275376165 5.190540268118331
O 2.919480001685271 -8.738930976454025 10.220825589225756
H 3.7954365570584434 -9.135514302103466 10.340780313249443
H 2.463980603222802 -8.920318249443227 11.056637110741145
C -3.779732464593488 -2.674423866393417 6.82568691449155
O -3.316192917128668 -2.550887160408168 7.922358254278646
O -4.243272012058309 -2.797960572378666 5.729015574704454