146

C -5.3564454929577465 1.0091607042253532 -0.0734429577464788
C -4.079135492957747 0.16955070422535368 -0.19788295774647868
C -4.333545492957747 -1.2789292957746463 0.3017270422535212
C -3.1403854929577464 -2.1745492957746464 0.7330270422535212
C -2.905235492957746 0.902300704225353 0.41966704225352136
C -2.7423854929577463 1.056130704225354 1.8024770422535212
C -1.8861754929577463 1.3499307042253532 -0.4326129577464788
C -1.5304554929577463 1.5279207042253526 2.3254170422535214
H -3.5237954929577464 0.7301007042253529 2.484817042253521
C -0.6776454929577462 1.8010507042253527 0.08546704225352131
H -1.9759254929577463 1.2426607042253535 -1.5115229577464788
C -0.4680254929577463 1.8513207042253539 1.4698070422535212
H -1.3950654929577464 1.5446707042253527 3.404047042253521
H 0.1461845070422536 1.9972507042253538 -0.6030529577464789
C -1.8679654929577463 -2.0866092957746467 -0.08765295774647863
C -0.6628654929577462 -1.814079295774647 0.5787970422535212
C -1.8438954929577462 -2.213429295774647 -1.4808029577464787
C 0.5129345070422537 -1.5763292957746469 -0.13022295774647863
H -0.6401854929577462 -1.7032692957746463 1.6609470422535213
C -0.6547954929577462 -1.9962392957746466 -2.1933129577464787
H -2.7578654929577464 -2.4351492957746466 -2.026182957746479
C 0.5308845070422537 -1.645769295774647 -1.5261029577464789
H 1.4044045070422537 -1.2610992957746463 0.41551704225352126
H -0.6795654929577464 -2.0467992957746466 -3.2793129577464786
C 1.7843245070422535 -1.2521692957746469 -2.2771629577464787
H 1.4981245070422535 -0.9384492957746469 -3.290282957746479
H 2.241984507042254 -0.38631929577464685 -1.8135029577464787
C 0.9385645070422537 2.0647807042253534 1.9815670422535212
H 1.0508945070422537 1.5807407042253532 2.9609770422535213
H 1.6053245070422537 1.5496207042253536 1.3096170422535214
C 3.9676945070422533 -1.6881692957746468 -3.314052957746479
H 4.795084507042254 -2.398849295774647 -3.4044129577464783
H 3.548404507042253 -1.4816192957746468 -4.303802957746479
H 4.307714507042253 -0.7637192957746466 -2.851282957746479
C 2.344694507042253 -3.565079295774647 -3.101282957746479
H 1.6334345070422536 -4.047909295774646 -2.4251929577464786
H 1.8561845070422536 -3.293109295774647 -4.041792957746479
H 3.1808045070422537 -4.243519295774647 -3.298122957746479
C 3.5156645070422536 -2.648489295774647 -1.1110629577464786
H 3.9311845070422535 -1.748249295774647 -0.6771029577464787
H 2.767184507042254 -3.1044092957746465 -0.45972295774647876
H 4.319224507042254 -3.371819295774647 -1.2863129577464787
C 2.963994507042253 3.381090704225353 2.401027042253521
H 3.3337945070422537 4.369820704225353 2.6912870422535216
H 3.120994507042253 2.671350704225353 3.2183370422535216
H 3.4665445070422534 3.0664207042253535 1.4881370422535212
C 1.2973745070422538 4.282440704225354 0.8488370422535213
H 1.7592145070422538 3.7367207042253527 0.02653704225352116
H 0.23311450704225378 4.4484607042253534 0.6605570422535213
H 1.7921845070422535 5.251370704225354 0.9736770422535213
C 0.7724845070422537 4.194670704225353 3.2772470422535216
H -0.2956954929577462 4.278220704225354 3.057857042253521
H 0.9298945070422537 3.612620704225354 4.190337042253521
H 1.2046345070422537 5.193640704225353 3.3918370422535213
N 2.876084507042253 -2.324759295774647 -2.4576629577464786
N 1.4527845070422536 3.504690704225353 2.1388470422535213
C -3.593905492957746 -3.637819295774647 0.8297870422535213
H -2.8952554929577463 -1.8680692957746468 1.7595270422535212
H -5.022615492957747 -1.2402792957746467 1.1579970422535213
H -4.898275492957747 -1.7933092957746464 -0.48931295774647876
H -3.883675492957746 0.07871070422535364 -1.2758929577464788
H -3.8751654929577466 -4.038529295774646 -0.1505529577464788
H -4.4603554929577465 -3.7321892957746465 1.4932570422535212
H -2.7953554929577464 -4.271929295774647 1.2313670422535212
H -5.648775492957746 1.147700704225353 0.9733970422535213
H -6.189795492957747 0.5254307042253537 -0.5943629577464788
H -5.2178854929577465 2.002970704225354 -0.5139729577464787
C 3.6710445070422537 1.0263707042253536 -0.27764295774647874
O 2.7356545070422538 1.6631507042253526 -0.7327029577464788
O 3.650814507042253 0.3883007042253537 0.7790570422535212
O 4.756604507042254 0.8696707042253538 -0.8334829577464786
O -8.828537048295157 7.632564739391315 -3.6360111045602466
H -8.343437159579734 8.34302222155814 -4.081988257452026
H -8.88618773871962 6.93321555498995 -4.304254369001219
O 5.4075603859958985 -3.628447083841149 3.205835480969292
H 4.9603628701502025 -3.5625533493972408 4.062946765740689
H 5.441917966914704 -4.581179634441869 3.032393306284894
O -3.1798878069191665 7.749086446225194 -2.8588305219597143
H -4.066699818684421 7.3804502804557135 -2.987823506170638
H -3.197100748075542 8.580056482083215 -3.35698156176879
O 0.32915942021240285 -3.704399990939585 3.979433401414872
H 0.9728857712888055 -2.989060991307619 3.8659703790886577
H 0.8370037619873378 -4.508151456084937 3.7922445900401485
O -6.426544467853796 5.526707545406561 6.489556125314714
H -7.264017819670934 5.414296400956418 6.015246651975228
H -6.209823467514571 4.633604648959997 6.796738756123687
O 1.6520907603967308 3.765943775701979 11.708797807629495
H 1.5624062516589459 3.5962477452589283 12.65860163108165
H 0.9960513737355854 3.179334526802756 11.303256371330862
O -3.648108916434002 0.4742104308846118 12.730490644874198
H -2.724647165744904 0.7422207127656781 12.610673113935446
H -3.586363428991298 -0.41732238351206874 13.105081995460939
O -6.670956201169741 -7.760114378425356 9.149012391530055
H -6.3865600619058425 -8.351346013507078 9.862126229953057
H -5.90913977535117 -7.731506180553306 8.550865880491557
O -7.352085032761994 -1.5086641248064891 6.488077344888342
H -6.877215295082243 -2.2335737942175156 6.0545198973333925
H -6.658344221250446 -0.86394395005822 6.693068874020301
O 1.6003600972226373 -10.68484063573263 0.8471979458310889
H 1.1178979114572112 -10.185630468224758 1.5232059375465783
H 1.1505453776190824 -11.54280436353791 0.8242435541283198
O -10.342974321023075 3.5484735678220827 6.65145568717224
H -11.226723211484465 3.8884642275098913 6.857275042028167
H -9.770832005557672 3.969673104036385 7.310398830278489
O -9.917739365976171 8.481365039692953 0.11747175290451084
H -10.359135595269288 8.684472596159715 0.9558535550519092
H -9.240427752733304 7.832495004246029 0.3607382733413549
O 4.457643080228066 10.578308693684031 7.289395808417233
H 4.845556522999486 11.459415645914715 7.1792093457823825
H 4.700026886035365 10.112357431313095 6.475085390899869
O -8.39406628444916 -2.144820943653589 7.715759981520986
H -8.315090647562576 -2.5749569095549445 6.851055837598645
H -9.14923216384696 -2.5888247208168753 8.129942410841787
O 0.9307820536453493 -7.226605029152555 -5.55780292153334
H 1.3985069360397566 -7.347413236838197 -4.7177992499670065
H 0.6875934944523507 -6.288617196654795 -5.557494597377182
O -10.516406022142661 -6.967478729789894 1.7532115364737733
H -11.261968350657803 -6.768562316141342 1.1670917265540952
H -9.771047457813452 -7.097682837430078 1.1478608569212332
O 3.0582085977840765 5.395544705468616 7.090402509906893
H 2.1996703473143846 5.196446426151241 6.687613105188618
H 2.8302735891812816 5.859747841111075 7.909867594588939
O -13.271598160519117 4.094144192383685 2.9999083047739505
H -13.730236482975432 4.224075774223063 3.8435527975048496
H -12.348481419986019 3.947536437154108 3.2554931121356008
O 7.421502083170554 5.448260013449642 8.965873575125768
H 7.341729820857907 5.477498145393783 9.931144974632634
H 6.709576868212433 4.851517665793406 8.6901508826963
O 3.61153289973978 -5.16468120398678 8.557902372952537
H 3.212119592212083 -5.602309709060528 7.791144485339569
H 2.953732040980325 -5.277056296054706 9.260491736092948
O 3.3446288364489756 -5.2435960296933235 1.518046403089479
H 3.2802673138390954 -5.680099202100056 0.6553240075379334
H 3.810152658305697 -4.415449226574443 1.327199899144841
O 6.5204595801048555 9.84540416555732 2.145225375346599
H 7.116056105349416 9.775863177290226 2.906406160027507
H 5.725968965824945 10.2656827619689 2.507319989390279
O 8.367873000083044 9.140297249845169 -3.94924545600251
H 9.231713204061291 9.43077078213997 -3.6200455381304
H 7.734624303112929 9.565023155615501 -3.35127728205575
O 5.3674548802956465 -4.210360806181149 -9.776308922800153
H 6.013921261160997 -4.0516370925298695 -10.480478900884709
H 4.515299474848005 -4.008329941915152 -10.191009584905121
C -5.102800282089271 1.3573546968065484 4.928863168864181
O -4.544507252901903 1.4616026738444057 5.98255169501615
O -5.661093311276638 1.253106719768691 3.8751746427122127