146

C -5.3564454929577465 1.0091607042253532 -0.0734429577464788
C -4.079135492957747 0.16955070422535368 -0.19788295774647868
C -4.333545492957747 -1.2789292957746463 0.3017270422535212
C -3.1403854929577464 -2.1745492957746464 0.7330270422535212
C -2.905235492957746 0.902300704225353 0.41966704225352136
C -2.7423854929577463 1.056130704225354 1.8024770422535212
C -1.8861754929577463 1.3499307042253532 -0.4326129577464788
C -1.5304554929577463 1.5279207042253526 2.3254170422535214
H -3.5237954929577464 0.7301007042253529 2.484817042253521
C -0.6776454929577462 1.8010507042253527 0.08546704225352131
H -1.9759254929577463 1.2426607042253535 -1.5115229577464788
C -0.4680254929577463 1.8513207042253539 1.4698070422535212
H -1.3950654929577464 1.5446707042253527 3.404047042253521
H 0.1461845070422536 1.9972507042253538 -0.6030529577464789
C -1.8679654929577463 -2.0866092957746467 -0.08765295774647863
C -0.6628654929577462 -1.814079295774647 0.5787970422535212
C -1.8438954929577462 -2.213429295774647 -1.4808029577464787
C 0.5129345070422537 -1.5763292957746469 -0.13022295774647863
H -0.6401854929577462 -1.7032692957746463 1.6609470422535213
C -0.6547954929577462 -1.9962392957746466 -2.1933129577464787
H -2.7578654929577464 -2.4351492957746466 -2.026182957746479
C 0.5308845070422537 -1.645769295774647 -1.5261029577464789
H 1.4044045070422537 -1.2610992957746463 0.41551704225352126
H -0.6795654929577464 -2.0467992957746466 -3.2793129577464786
C 1.7843245070422535 -1.2521692957746469 -2.2771629577464787
H 1.4981245070422535 -0.9384492957746469 -3.290282957746479
H 2.241984507042254 -0.38631929577464685 -1.8135029577464787
C 0.9385645070422537 2.0647807042253534 1.9815670422535212
H 1.0508945070422537 1.5807407042253532 2.9609770422535213
H 1.6053245070422537 1.5496207042253536 1.3096170422535214
C 3.9676945070422533 -1.6881692957746468 -3.314052957746479
H 4.795084507042254 -2.398849295774647 -3.4044129577464783
H 3.548404507042253 -1.4816192957746468 -4.303802957746479
H 4.307714507042253 -0.7637192957746466 -2.851282957746479
C 2.344694507042253 -3.565079295774647 -3.101282957746479
H 1.6334345070422536 -4.047909295774646 -2.4251929577464786
H 1.8561845070422536 -3.293109295774647 -4.041792957746479
H 3.1808045070422537 -4.243519295774647 -3.298122957746479
C 3.5156645070422536 -2.648489295774647 -1.1110629577464786
H 3.9311845070422535 -1.748249295774647 -0.6771029577464787
H 2.767184507042254 -3.1044092957746465 -0.45972295774647876
H 4.319224507042254 -3.371819295774647 -1.2863129577464787
C 2.963994507042253 3.381090704225353 2.401027042253521
H 3.3337945070422537 4.369820704225353 2.6912870422535216
H 3.120994507042253 2.671350704225353 3.2183370422535216
H 3.4665445070422534 3.0664207042253535 1.4881370422535212
C 1.2973745070422538 4.282440704225354 0.8488370422535213
H 1.7592145070422538 3.7367207042253527 0.02653704225352116
H 0.23311450704225378 4.4484607042253534 0.6605570422535213
H 1.7921845070422535 5.251370704225354 0.9736770422535213
C 0.7724845070422537 4.194670704225353 3.2772470422535216
H -0.2956954929577462 4.278220704225354 3.057857042253521
H 0.9298945070422537 3.612620704225354 4.190337042253521
H 1.2046345070422537 5.193640704225353 3.3918370422535213
N 2.876084507042253 -2.324759295774647 -2.4576629577464786
N 1.4527845070422536 3.504690704225353 2.1388470422535213
C -3.593905492957746 -3.637819295774647 0.8297870422535213
H -2.8952554929577463 -1.8680692957746468 1.7595270422535212
H -5.022615492957747 -1.2402792957746467 1.1579970422535213
H -4.898275492957747 -1.7933092957746464 -0.48931295774647876
H -3.883675492957746 0.07871070422535364 -1.2758929577464788
H -3.8751654929577466 -4.038529295774646 -0.1505529577464788
H -4.4603554929577465 -3.7321892957746465 1.4932570422535212
H -2.7953554929577464 -4.271929295774647 1.2313670422535212
H -5.648775492957746 1.147700704225353 0.9733970422535213
H -6.189795492957747 0.5254307042253537 -0.5943629577464788
H -5.2178854929577465 2.002970704225354 -0.5139729577464787
C 3.6710445070422537 1.0263707042253536 -0.27764295774647874
O 2.7356545070422538 1.6631507042253526 -0.7327029577464788
O 3.650814507042253 0.3883007042253537 0.7790570422535212
O 4.756604507042254 0.8696707042253538 -0.8334829577464786
O 4.867974024090128 7.630296895124015 -2.9803706232846388
H 4.946529642239614 7.766721906492254 -2.0242406174641285
H 4.751871339464304 6.672592693576858 -3.0713913531300934
O -3.02083844635322 -5.766690612646851 -3.575237490232736
H -3.217977867554188 -5.730252324511673 -4.523275283079796
H -3.7755639176536393 -5.32111941865122 -3.1619364881148284
O 8.893450138738698 11.150357817047054 4.174277540968811
H 9.810735100506609 10.974570133285455 3.916102511091446
H 8.435896117804967 10.315030496752259 3.995855204372478
O 0.7554408697417356 8.396937964067531 1.6838083817176779
H 0.7287535691129756 8.710326460297566 2.600346867170323
H 1.0806511352175154 9.161090564913103 1.18453788374076
O -7.246624838761237 7.010839390894044 0.9148382255504264
H -7.282320699208113 6.332876292792476 0.22341997292797688
H -6.404921182250324 7.463684677871597 0.7553764903962625
O 6.332781358768311 5.039806852441123 2.066672186562381
H 5.5470906052905775 5.5161362179120745 1.7588285048184926
H 5.985317055913486 4.410404626182566 2.716351599905903
O -0.2600413621554354 -2.19454345818995 -7.659461261073247
H -0.6665143590032663 -3.0443072008309358 -7.886724635655097
H 0.5677819249537741 -2.4410794389263413 -7.220268183006152
O -6.485640422225808 10.812323816566527 0.6067176325296997
H -6.377625903955527 10.668682406084942 -0.34547319180001534
H -5.848146517963162 11.512753900832909 0.8115618742904984
O -0.9776418493712598 -2.1118262481869077 5.809724568797254
H -0.4905485378434551 -1.276142189535911 5.867513987218585
H -0.3350051928567397 -2.7776741477232445 6.097173080163875
O 3.2083203959376188 -5.376047238206146 7.572957398629029
H 3.570929617847588 -6.261624912406088 7.420530064976333
H 3.9720647702566803 -4.7890704184970865 7.467531177411427
O 6.058449553551172 -4.368609651781188 8.984660116938702
H 5.482963464918713 -5.134230744813644 8.837665353105757
H 5.482960116760407 -3.6074461217279525 8.816125452969695
O -9.398052606199702 8.718841776783794 -4.970491043350608
H -9.825188508154135 9.426582750100692 -4.464897340017563
H -9.95393169748132 7.943068537301034 -4.802752374349261
O -1.9334150507211945 -12.51138435380396 -1.6908638691387132
H -2.192386550688906 -12.787697766085667 -0.7989266419205014
H -2.124786505993229 -13.286007548567566 -2.2406800352718004
O -4.214453842069339 3.5865682800808987 -1.9537128950802596
H -4.0114460946719905 3.9349003857919667 -2.834859849638663
H -5.171786540094103 3.7097079614716817 -1.86819875321119
O 5.212257962502722 -6.049521418478978 5.2375682450722545
H 5.906266932470398 -6.714033191693512 5.112097093951038
H 4.724351536645548 -6.364260184383655 6.0133573743748485
O -7.743881143545688 -1.1069546889622908 1.1196612356493612
H -8.111260307060158 -1.10846530095451 0.2230020890575144
H -7.447091318786079 -2.019763992303923 1.2525405792364053
O -3.6867923065958643 5.173114279713065 7.326945025356646
H -3.7030227441985897 6.115825077545503 7.5505524524366825
H -2.743802783967328 4.950186698089083 7.320945203352205
O 3.658234554397596 11.453428301765367 -1.7968290801414337
H 3.80200437407075 12.393475094152157 -1.9828657001237904
H 3.924558803328657 11.354774026584167 -0.8703838995075346
O -6.5090109215627905 3.7918337494169734 -5.651278378893897
H -5.811899776324972 4.14509262163573 -6.224175906628089
H -6.813268478072466 4.563237739641435 -5.149954962851377
O -7.274625030485684 -8.786560073990549 -2.9106362379022475
H -7.459637416012428 -8.076423349620445 -2.2778301010778597
H -7.114674785836954 -9.562030338963083 -2.3520453932939267
O 9.033980813823865 1.222209500386107 4.25341599321606
H 9.52602292581261 1.6307954149543082 3.5254603164430014
H 9.12474408342562 0.2709957091563595 4.092430600818087
O -3.5229094269412875 -5.093483666062172 5.572407929671058
H -3.7501887633184694 -4.738524160629727 6.444941716787123
H -2.658689490859851 -5.510505472211594 5.707236189228432
O 8.905377179246214 0.43778988469087476 10.469982579430118
H 7.968080860350291 0.4840369265499538 10.711445161631664
H 9.196243819611487 1.3620168986327803 10.482748491957139
O 1.3741912528858409 -7.369773499625413 -4.456230647046118
H 0.9466467955817652 -7.122739090059609 -5.289985463775256
H 1.674297572097979 -8.27864611480143 -4.60738854744186
C 8.570580258394394 5.4572897771657285 9.065107733462813
O 9.399069727430287 5.719645574217019 8.241947425412064
O 7.742090789358501 5.1949339801144365 9.888268041513564