146

C -5.3564454929577465 1.0091607042253532 -0.0734429577464788
C -4.079135492957747 0.16955070422535368 -0.19788295774647868
C -4.333545492957747 -1.2789292957746463 0.3017270422535212
C -3.1403854929577464 -2.1745492957746464 0.7330270422535212
C -2.905235492957746 0.902300704225353 0.41966704225352136
C -2.7423854929577463 1.056130704225354 1.8024770422535212
C -1.8861754929577463 1.3499307042253532 -0.4326129577464788
C -1.5304554929577463 1.5279207042253526 2.3254170422535214
H -3.5237954929577464 0.7301007042253529 2.484817042253521
C -0.6776454929577462 1.8010507042253527 0.08546704225352131
H -1.9759254929577463 1.2426607042253535 -1.5115229577464788
C -0.4680254929577463 1.8513207042253539 1.4698070422535212
H -1.3950654929577464 1.5446707042253527 3.404047042253521
H 0.1461845070422536 1.9972507042253538 -0.6030529577464789
C -1.8679654929577463 -2.0866092957746467 -0.08765295774647863
C -0.6628654929577462 -1.814079295774647 0.5787970422535212
C -1.8438954929577462 -2.213429295774647 -1.4808029577464787
C 0.5129345070422537 -1.5763292957746469 -0.13022295774647863
H -0.6401854929577462 -1.7032692957746463 1.6609470422535213
C -0.6547954929577462 -1.9962392957746466 -2.1933129577464787
H -2.7578654929577464 -2.4351492957746466 -2.026182957746479
C 0.5308845070422537 -1.645769295774647 -1.5261029577464789
H 1.4044045070422537 -1.2610992957746463 0.41551704225352126
H -0.6795654929577464 -2.0467992957746466 -3.2793129577464786
C 1.7843245070422535 -1.2521692957746469 -2.2771629577464787
H 1.4981245070422535 -0.9384492957746469 -3.290282957746479
H 2.241984507042254 -0.38631929577464685 -1.8135029577464787
C 0.9385645070422537 2.0647807042253534 1.9815670422535212
H 1.0508945070422537 1.5807407042253532 2.9609770422535213
H 1.6053245070422537 1.5496207042253536 1.3096170422535214
C 3.9676945070422533 -1.6881692957746468 -3.314052957746479
H 4.795084507042254 -2.398849295774647 -3.4044129577464783
H 3.548404507042253 -1.4816192957746468 -4.303802957746479
H 4.307714507042253 -0.7637192957746466 -2.851282957746479
C 2.344694507042253 -3.565079295774647 -3.101282957746479
H 1.6334345070422536 -4.047909295774646 -2.4251929577464786
H 1.8561845070422536 -3.293109295774647 -4.041792957746479
H 3.1808045070422537 -4.243519295774647 -3.298122957746479
C 3.5156645070422536 -2.648489295774647 -1.1110629577464786
H 3.9311845070422535 -1.748249295774647 -0.6771029577464787
H 2.767184507042254 -3.1044092957746465 -0.45972295774647876
H 4.319224507042254 -3.371819295774647 -1.2863129577464787
C 2.963994507042253 3.381090704225353 2.401027042253521
H 3.3337945070422537 4.369820704225353 2.6912870422535216
H 3.120994507042253 2.671350704225353 3.2183370422535216
H 3.4665445070422534 3.0664207042253535 1.4881370422535212
C 1.2973745070422538 4.282440704225354 0.8488370422535213
H 1.7592145070422538 3.7367207042253527 0.02653704225352116
H 0.23311450704225378 4.4484607042253534 0.6605570422535213
H 1.7921845070422535 5.251370704225354 0.9736770422535213
C 0.7724845070422537 4.194670704225353 3.2772470422535216
H -0.2956954929577462 4.278220704225354 3.057857042253521
H 0.9298945070422537 3.612620704225354 4.190337042253521
H 1.2046345070422537 5.193640704225353 3.3918370422535213
N 2.876084507042253 -2.324759295774647 -2.4576629577464786
N 1.4527845070422536 3.504690704225353 2.1388470422535213
C -3.593905492957746 -3.637819295774647 0.8297870422535213
H -2.8952554929577463 -1.8680692957746468 1.7595270422535212
H -5.022615492957747 -1.2402792957746467 1.1579970422535213
H -4.898275492957747 -1.7933092957746464 -0.48931295774647876
H -3.883675492957746 0.07871070422535364 -1.2758929577464788
H -3.8751654929577466 -4.038529295774646 -0.1505529577464788
H -4.4603554929577465 -3.7321892957746465 1.4932570422535212
H -2.7953554929577464 -4.271929295774647 1.2313670422535212
H -5.648775492957746 1.147700704225353 0.9733970422535213
H -6.189795492957747 0.5254307042253537 -0.5943629577464788
H -5.2178854929577465 2.002970704225354 -0.5139729577464787
C 3.6710445070422537 1.0263707042253536 -0.27764295774647874
O 2.7356545070422538 1.6631507042253526 -0.7327029577464788
O 3.650814507042253 0.3883007042253537 0.7790570422535212
O 4.756604507042254 0.8696707042253538 -0.8334829577464786
O 8.352502627230397 5.70358342673312 1.6001265966657874
H 8.747527526496086 5.64359175632376 0.7173334808444025
H 8.086570025248324 4.793454398211992 1.7998938285789108
O -4.689906010646348 6.13306914995295 6.8688114077270495
H -4.607601017192699 7.082935723911357 6.695760153385696
H -5.158350156338161 6.089216819689777 7.715923560749043
O -7.930089787137251 -5.768664286297452 -3.764141882103905
H -8.177614822177471 -5.019276127894434 -3.201899850614198
H -8.779166717169053 -6.128603374669808 -4.061587950912092
O 4.39855771204102 3.061650716335304 -9.105228979615923
H 3.6001762692791948 2.513560872205484 -9.071288568373628
H 4.760186730049261 2.893992505070928 -9.988448726807993
O 5.313711730835746 0.14134364789907466 -10.192530345310129
H 5.742196373674237 0.407498384716417 -9.365167109590011
H 4.550388414119831 0.7341895320410644 -10.262051680982823
O 7.812007211249239 4.572343106938884 4.49159838845745
H 7.340093717080439 3.7370043024418784 4.627517822766568
H 7.268293358994965 5.2265296285297875 4.955685865271479
O 5.5947147253758756 -5.695946452524329 -2.149852214907482
H 6.441348635852625 -5.838942816805832 -2.598996310196645
H 5.593769454848936 -4.748111089909565 -1.9484343007574054
O -6.388615832606273 1.4095508621525452 -5.077851625352532
H -6.991587852522947 1.1502817695821443 -4.364990041498185
H -6.145519865115155 2.3215969116312065 -4.85867521576445
O 10.455208936605258 8.929899829891736 -2.4625844124643077
H 11.172722642235751 9.243145860434797 -3.033564590300125
H 9.80931810226643 9.652016963638017 -2.4808551422567358
O 4.594272025613529 5.83143916407988 9.152202680778604
H 5.259823554618029 5.740814541423818 9.85062640382087
H 4.703478869330265 6.74280989217306 8.84165605696772
O -0.8733381865969418 -12.924063704156634 -3.170830618440576
H -1.3194073301295184 -12.49070410287792 -3.9139249139829846
H -1.6003400876076803 -13.249495220017824 -2.6189932250799397
O 1.3723492160733501 -6.6576486223210205 3.00218428698872
H 0.8438102158283924 -6.050910905842334 3.542076151645238
H 2.188308166593901 -6.165095461995606 2.8273577454715713
O -2.368873152145506 7.627682466976734 -9.269894763072413
H -2.9502619347045833 7.3667027934839195 -8.539933085696088
H -2.8856825815993483 8.287399170442686 -9.756355274414917
O 7.508373296186594 -0.06578803160117186 4.268397209896357
H 7.437355404977588 -0.23898956873466348 3.3176474828057723
H 8.463306284983933 -0.03669404125648601 4.43031839730679
O -7.111607905168965 -4.3524702424297255 1.803987363277263
H -7.852844695140192 -4.8171488876646915 1.3873230682437796
H -6.982413091011886 -3.570538495362618 1.2464450893432601
O 2.326119149187727 -0.03480858799179121 6.277540879075018
H 1.4084517092653843 -0.3196188659938062 6.4029878086938385
H 2.3830135595053594 0.16095446178050432 5.330227943072106
O 2.5661663470716722 -6.536052018969212 -3.0883680951267216
H 2.3811151248156834 -5.726454311873122 -3.5876425233786815
H 2.105916743317996 -6.402059700473327 -2.2462408451646505
O 5.61590402460251 6.317883063359564 -1.9295159606290395
H 5.733316068729369 7.12899121025422 -1.4125194975511284
H 6.243433547229587 5.694859257387755 -1.5332711124305654
O -12.858820435884178 1.8143155906179116 4.002137396789187
H -12.657190542445564 1.798160797637176 3.054481464693744
H -11.995490099849189 1.9428736728336782 4.4229645521376915
O 0.4145859029069934 -2.3892610247914656 10.990843814891333
H 0.3629216325940189 -2.3752983243228547 11.95836807973881
H -0.502141201553054 -2.5285866941976254 10.709486891939676
O 4.53569307837134 -5.857904262778594 0.7186996920430235
H 3.895053647902155 -6.215733366744132 1.3515557652408234
H 3.99046773429017 -5.365734540696292 0.08667102723659292
O 2.663781550241454 3.3249875436649248 8.741874197243524
H 2.2837808088692677 4.1924859224911835 8.946845795740497
H 3.2907778928741953 3.507356479855975 8.025927899161251
O -4.455748289428201 -2.9833192410721012 -10.619281165326864
H -3.491134043922049 -3.0067669172043345 -10.530191767806185
H -4.6888505344870435 -2.068594430062248 -10.400411780141285
O -4.9273193446881045 7.5831250816638684 3.603243714824791
H -5.450845245753557 8.173817744717091 3.0411314790313497
H -5.533500703863165 7.344549935620689 4.320591610743607
C -0.9455964572663194 -5.079008825837747 -1.7379469167096973
O -1.393003691952632 -4.702352308600185 -0.6935452259446844
O -0.4981892225800071 -5.455665343075308 -2.7823486074747095