146

C -5.3564454929577465 1.0091607042253532 -0.0734429577464788
C -4.079135492957747 0.16955070422535368 -0.19788295774647868
C -4.333545492957747 -1.2789292957746463 0.3017270422535212
C -3.1403854929577464 -2.1745492957746464 0.7330270422535212
C -2.905235492957746 0.902300704225353 0.41966704225352136
C -2.7423854929577463 1.056130704225354 1.8024770422535212
C -1.8861754929577463 1.3499307042253532 -0.4326129577464788
C -1.5304554929577463 1.5279207042253526 2.3254170422535214
H -3.5237954929577464 0.7301007042253529 2.484817042253521
C -0.6776454929577462 1.8010507042253527 0.08546704225352131
H -1.9759254929577463 1.2426607042253535 -1.5115229577464788
C -0.4680254929577463 1.8513207042253539 1.4698070422535212
H -1.3950654929577464 1.5446707042253527 3.404047042253521
H 0.1461845070422536 1.9972507042253538 -0.6030529577464789
C -1.8679654929577463 -2.0866092957746467 -0.08765295774647863
C -0.6628654929577462 -1.814079295774647 0.5787970422535212
C -1.8438954929577462 -2.213429295774647 -1.4808029577464787
C 0.5129345070422537 -1.5763292957746469 -0.13022295774647863
H -0.6401854929577462 -1.7032692957746463 1.6609470422535213
C -0.6547954929577462 -1.9962392957746466 -2.1933129577464787
H -2.7578654929577464 -2.4351492957746466 -2.026182957746479
C 0.5308845070422537 -1.645769295774647 -1.5261029577464789
H 1.4044045070422537 -1.2610992957746463 0.41551704225352126
H -0.6795654929577464 -2.0467992957746466 -3.2793129577464786
C 1.7843245070422535 -1.2521692957746469 -2.2771629577464787
H 1.4981245070422535 -0.9384492957746469 -3.290282957746479
H 2.241984507042254 -0.38631929577464685 -1.8135029577464787
C 0.9385645070422537 2.0647807042253534 1.9815670422535212
H 1.0508945070422537 1.5807407042253532 2.9609770422535213
H 1.6053245070422537 1.5496207042253536 1.3096170422535214
C 3.9676945070422533 -1.6881692957746468 -3.314052957746479
H 4.795084507042254 -2.398849295774647 -3.4044129577464783
H 3.548404507042253 -1.4816192957746468 -4.303802957746479
H 4.307714507042253 -0.7637192957746466 -2.851282957746479
C 2.344694507042253 -3.565079295774647 -3.101282957746479
H 1.6334345070422536 -4.047909295774646 -2.4251929577464786
H 1.8561845070422536 -3.293109295774647 -4.041792957746479
H 3.1808045070422537 -4.243519295774647 -3.298122957746479
C 3.5156645070422536 -2.648489295774647 -1.1110629577464786
H 3.9311845070422535 -1.748249295774647 -0.6771029577464787
H 2.767184507042254 -3.1044092957746465 -0.45972295774647876
H 4.319224507042254 -3.371819295774647 -1.2863129577464787
C 2.963994507042253 3.381090704225353 2.401027042253521
H 3.3337945070422537 4.369820704225353 2.6912870422535216
H 3.120994507042253 2.671350704225353 3.2183370422535216
H 3.4665445070422534 3.0664207042253535 1.4881370422535212
C 1.2973745070422538 4.282440704225354 0.8488370422535213
H 1.7592145070422538 3.7367207042253527 0.02653704225352116
H 0.23311450704225378 4.4484607042253534 0.6605570422535213
H 1.7921845070422535 5.251370704225354 0.9736770422535213
C 0.7724845070422537 4.194670704225353 3.2772470422535216
H -0.2956954929577462 4.278220704225354 3.057857042253521
H 0.9298945070422537 3.612620704225354 4.190337042253521
H 1.2046345070422537 5.193640704225353 3.3918370422535213
N 2.876084507042253 -2.324759295774647 -2.4576629577464786
N 1.4527845070422536 3.504690704225353 2.1388470422535213
C -3.593905492957746 -3.637819295774647 0.8297870422535213
H -2.8952554929577463 -1.8680692957746468 1.7595270422535212
H -5.022615492957747 -1.2402792957746467 1.1579970422535213
H -4.898275492957747 -1.7933092957746464 -0.48931295774647876
H -3.883675492957746 0.07871070422535364 -1.2758929577464788
H -3.8751654929577466 -4.038529295774646 -0.1505529577464788
H -4.4603554929577465 -3.7321892957746465 1.4932570422535212
H -2.7953554929577464 -4.271929295774647 1.2313670422535212
H -5.648775492957746 1.147700704225353 0.9733970422535213
H -6.189795492957747 0.5254307042253537 -0.5943629577464788
H -5.2178854929577465 2.002970704225354 -0.5139729577464787
C 3.6710445070422537 1.0263707042253536 -0.27764295774647874
O 2.7356545070422538 1.6631507042253526 -0.7327029577464788
O 3.650814507042253 0.3883007042253537 0.7790570422535212
O 4.756604507042254 0.8696707042253538 -0.8334829577464786
O 7.732787815024176 -4.908634193147817 7.2568517840298705
H 7.817626068028854 -5.865443971884106 7.384463989722467
H 6.948522925244116 -4.8160249333943925 6.695323465985099
O -2.528592829950444 0.8787000334608046 -7.417651774782044
H -3.4267403876392546 1.2334205493622896 -7.498098509434291
H -2.2708537869071064 0.6846843394293693 -8.33137516862758
O 6.664252358668698 7.63519809087082 -3.3647820343822348
H 7.158476245178412 7.538601038564341 -4.192658303150058
H 6.009566977064037 6.921602125537736 -3.3983944379485247
O -7.097826724840334 -2.9905585741686207 -6.700286179260814
H -7.883260972329621 -3.3302803854427685 -7.154873344406895
H -6.526532600719014 -3.7677348047724015 -6.607646691843442
O 1.1032778482881391 1.3691155611578196 11.710538964420742
H 1.0583002298233783 1.8201702738755172 12.566981616833845
H 1.9742756023551924 1.6130861763685662 11.362971423324284
O 11.0195790328316 3.8745606060974005 -4.419846622470713
H 11.686916129348104 4.439448080591729 -4.837615335603161
H 10.17689464673873 4.274820995002407 -4.681832482411464
O -2.4846788092795147 10.100637610737694 1.8607010405454283
H -1.5327026397362498 10.163062036428231 2.030441785798124
H -2.5497577678295213 9.483499156971657 1.116478760351324
O -11.61202114685451 0.5629818230795172 -2.8817771609452096
H -11.671092506708515 0.2896363730612137 -1.9540055315561176
H -11.382153891320101 1.5031402750669756 -2.83460646782306
O 1.782746654612966 0.747966569980083 8.926242971271275
H 1.569342548595173 0.6002709076963444 9.859844618537021
H 2.7305998673476894 0.554816821874329 8.869415106493989
O 2.779898248553736 9.393999413465448 -5.966720496598315
H 3.566283120312889 8.857554981431736 -5.7856305694671555
H 2.4649245663093025 9.0661862037742 -6.822461125144898
O 4.215085930605968 -6.269758437760687 -9.246935981660288
H 4.386854197569904 -5.9526948044811885 -10.14634338201666
H 3.7968035495540913 -7.133760451615846 -9.379232293233223
O -11.178356154527886 -3.620936328385593 -2.9219822118658634
H -10.772739183216114 -3.571401313813085 -2.0433534439466876
H -10.586601723174349 -3.09724937321222 -3.4828214136471707
O 2.214696788649211 1.0699424152141812 6.007617978105945
H 1.8974998447071791 1.2944490492516627 5.119952372752783
H 1.7874779616070922 1.7237807783157113 6.581152120993242
O 2.6602561858123144 4.416991370867212 -8.186701385461625
H 2.0075340690091323 4.306927529507032 -7.4790240960415
H 3.022075617215378 3.5268392244031546 -8.311912405362403
O -2.610378562377205 -13.642611033210244 2.8591253447327176
H -1.7680241740647638 -14.0787022602907 2.6610574698659537
H -2.49099059526609 -12.740573678643171 2.5259030937129
O -2.1317586127279986 -6.124460649112944 2.305963883035611
H -2.2475474332765164 -6.163480517265707 1.3446950570429412
H -2.806971489058565 -6.72960254047148 2.6478012818971406
O -5.561958370473147 5.811987935634668 4.28259588273377
H -5.646728218590957 6.740908473657711 4.0201305254214885
H -6.1597461976312395 5.34329365820043 3.6809836053474077
O -3.4086003044389384 -8.960172401762474 -6.422045057865791
H -4.230524794685277 -8.682595758221256 -6.853737884067118
H -3.6756141727346456 -9.711427942767642 -5.871335832823396
O -0.4934982986571883 -1.1951712779862271 10.56019491116853
H 0.3851048658210121 -1.5778955647602728 10.416856303033137
H -0.6406430267741503 -0.6463834955408985 9.775247560624479
O 2.9223296296379813 -2.9490808657006036 11.510239222076763
H 3.0541552062172515 -3.610011308447476 12.20648653741088
H 2.9938359541151787 -3.4574253583697447 10.688390898702723
O 6.122412519068363 -7.696142862886729 -3.54135563206035
H 6.04398213562872 -7.597883487665423 -4.502168375020512
H 5.9116826572686305 -8.628680531102368 -3.3834684349707707
O 6.819712332040975 5.123362147286593 -3.736808860767045
H 6.872562565465078 4.155917719688264 -3.751825159777174
H 7.615364465855623 5.408617574044098 -4.210653738086187
O 6.775954594364014 13.360025206676864 -6.738995547588554
H 5.989357638837912 13.411663561251864 -6.175465542359145
H 6.808945490269531 12.430343081635083 -7.010223664613969
O -2.7161071429491983 2.7623160071558246 -8.592089208888009
H -2.9784816853476217 3.6894462134214283 -8.69483421865062
H -3.242731665015572 2.2948827264297496 -9.257772831285331
C 1.1342215601095933 1.5320239320808482 -2.108466739782659
O 0.7604053916630572 0.5857743040809149 -2.739094499255662
O 1.5080377285561295 2.4782735600807815 -1.4778389803096563