146

C -5.3564454929577465 1.0091607042253532 -0.0734429577464788
C -4.079135492957747 0.16955070422535368 -0.19788295774647868
C -4.333545492957747 -1.2789292957746463 0.3017270422535212
C -3.1403854929577464 -2.1745492957746464 0.7330270422535212
C -2.905235492957746 0.902300704225353 0.41966704225352136
C -2.7423854929577463 1.056130704225354 1.8024770422535212
C -1.8861754929577463 1.3499307042253532 -0.4326129577464788
C -1.5304554929577463 1.5279207042253526 2.3254170422535214
H -3.5237954929577464 0.7301007042253529 2.484817042253521
C -0.6776454929577462 1.8010507042253527 0.08546704225352131
H -1.9759254929577463 1.2426607042253535 -1.5115229577464788
C -0.4680254929577463 1.8513207042253539 1.4698070422535212
H -1.3950654929577464 1.5446707042253527 3.404047042253521
H 0.1461845070422536 1.9972507042253538 -0.6030529577464789
C -1.8679654929577463 -2.0866092957746467 -0.08765295774647863
C -0.6628654929577462 -1.814079295774647 0.5787970422535212
C -1.8438954929577462 -2.213429295774647 -1.4808029577464787
C 0.5129345070422537 -1.5763292957746469 -0.13022295774647863
H -0.6401854929577462 -1.7032692957746463 1.6609470422535213
C -0.6547954929577462 -1.9962392957746466 -2.1933129577464787
H -2.7578654929577464 -2.4351492957746466 -2.026182957746479
C 0.5308845070422537 -1.645769295774647 -1.5261029577464789
H 1.4044045070422537 -1.2610992957746463 0.41551704225352126
H -0.6795654929577464 -2.0467992957746466 -3.2793129577464786
C 1.7843245070422535 -1.2521692957746469 -2.2771629577464787
H 1.4981245070422535 -0.9384492957746469 -3.290282957746479
H 2.241984507042254 -0.38631929577464685 -1.8135029577464787
C 0.9385645070422537 2.0647807042253534 1.9815670422535212
H 1.0508945070422537 1.5807407042253532 2.9609770422535213
H 1.6053245070422537 1.5496207042253536 1.3096170422535214
C 3.9676945070422533 -1.6881692957746468 -3.314052957746479
H 4.795084507042254 -2.398849295774647 -3.4044129577464783
H 3.548404507042253 -1.4816192957746468 -4.303802957746479
H 4.307714507042253 -0.7637192957746466 -2.851282957746479
C 2.344694507042253 -3.565079295774647 -3.101282957746479
H 1.6334345070422536 -4.047909295774646 -2.4251929577464786
H 1.8561845070422536 -3.293109295774647 -4.041792957746479
H 3.1808045070422537 -4.243519295774647 -3.298122957746479
C 3.5156645070422536 -2.648489295774647 -1.1110629577464786
H 3.9311845070422535 -1.748249295774647 -0.6771029577464787
H 2.767184507042254 -3.1044092957746465 -0.45972295774647876
H 4.319224507042254 -3.371819295774647 -1.2863129577464787
C 2.963994507042253 3.381090704225353 2.401027042253521
H 3.3337945070422537 4.369820704225353 2.6912870422535216
H 3.120994507042253 2.671350704225353 3.2183370422535216
H 3.4665445070422534 3.0664207042253535 1.4881370422535212
C 1.2973745070422538 4.282440704225354 0.8488370422535213
H 1.7592145070422538 3.7367207042253527 0.02653704225352116
H 0.23311450704225378 4.4484607042253534 0.6605570422535213
H 1.7921845070422535 5.251370704225354 0.9736770422535213
C 0.7724845070422537 4.194670704225353 3.2772470422535216
H -0.2956954929577462 4.278220704225354 3.057857042253521
H 0.9298945070422537 3.612620704225354 4.190337042253521
H 1.2046345070422537 5.193640704225353 3.3918370422535213
N 2.876084507042253 -2.324759295774647 -2.4576629577464786
N 1.4527845070422536 3.504690704225353 2.1388470422535213
C -3.593905492957746 -3.637819295774647 0.8297870422535213
H -2.8952554929577463 -1.8680692957746468 1.7595270422535212
H -5.022615492957747 -1.2402792957746467 1.1579970422535213
H -4.898275492957747 -1.7933092957746464 -0.48931295774647876
H -3.883675492957746 0.07871070422535364 -1.2758929577464788
H -3.8751654929577466 -4.038529295774646 -0.1505529577464788
H -4.4603554929577465 -3.7321892957746465 1.4932570422535212
H -2.7953554929577464 -4.271929295774647 1.2313670422535212
H -5.648775492957746 1.147700704225353 0.9733970422535213
H -6.189795492957747 0.5254307042253537 -0.5943629577464788
H -5.2178854929577465 2.002970704225354 -0.5139729577464787
C 3.6710445070422537 1.0263707042253536 -0.27764295774647874
O 2.7356545070422538 1.6631507042253526 -0.7327029577464788
O 3.650814507042253 0.3883007042253537 0.7790570422535212
O 4.756604507042254 0.8696707042253538 -0.8334829577464786
O -6.3655728584876305 6.935584377298872 1.3032465214717228
H -6.567059047783004 7.4968733994933014 0.5394891607954087
H -6.608919966509694 7.4817452102873245 2.065776831575299
O -3.782844697193317 -4.696611028178964 9.655474317098943
H -3.8606375728166418 -5.005313499093052 10.570689269912645
H -3.2200715794790256 -5.361615409580434 9.231189583700502
O -3.7784274700631166 -0.9287672211481657 11.07339964558231
H -3.450570157342108 -1.6762609281278573 10.551163973283762
H -3.8913824454274617 -0.22002525841781373 10.422332868588146
O -4.753902402151474 -1.6166749963795701 -6.800407746390415
H -5.01060760112254 -1.0955115016456682 -6.024870249245389
H -5.066921572104356 -2.510596004902309 -6.595746626331675
O 4.318472554011381 -9.878425697140312 -2.364265550486073
H 4.1446953641062105 -9.728969510551043 -1.4227605353858572
H 4.551996447994046 -10.817604263131205 -2.4129703389823085
O -12.07387019821682 -4.833110537224438 -2.0602989891207564
H -12.150418379412528 -4.488769173035827 -1.1577820874705111
H -11.135121366702025 -4.723196531399418 -2.2739142670226435
O -1.106261445942467 12.05028831036115 -7.044849391233915
H -1.1730799136679018 12.014013071421996 -8.010865310518238
H -1.8778085961488458 11.550802582983115 -6.73794395391804
O 6.081124495705207 -4.1063439769668655 4.515546186002137
H 5.473990802973871 -4.424669609330678 5.200400059343445
H 5.735549200822468 -4.49439530365828 3.6976489872541887
O 5.0385808023115555 6.591670252294347 -6.92117474488699
H 5.920991676816207 6.2917661447845035 -6.65589012084206
H 4.638650528204821 6.902065766398062 -6.094934861452886
O 9.184602429732632 1.5227120995319159 -5.93573164952451
H 9.948284411978022 2.0045168866559306 -6.287329906059065
H 9.367277365672171 0.5981093958880819 -6.160901923970312
O 2.10026565915331 13.147253187634762 -5.431132811562267
H 2.216087345539407 13.400093186406586 -6.359370189006066
H 1.138907399821945 13.097669291930933 -5.320255948321097
O 7.859307924365275 10.663697377576344 1.53045722455079
H 7.977500175877036 10.777616764710881 0.5754596738641542
H 6.928180145495704 10.88685636966816 1.6793298814290192
O -1.6867324543302549 0.8560392170633038 9.934540257344317
H -1.4579219294683434 1.377405498256895 10.718625904099046
H -2.652265092064653 0.9205884516852523 9.884121351372697
O -8.485187813276264 4.933524865751193 4.777796273253937
H -8.92561768622705 5.784097992842633 4.924473604094266
H -8.813750115209366 4.6459186654393285 3.9127578743428884
O 2.3924832185316385 -12.262347842615904 -4.778742646423487
H 2.520227937309252 -13.06527132881409 -4.251521137913276
H 3.262927184209565 -11.836628817357326 -4.771492925893086
O 1.0690618065560837 -0.8460083715768307 -5.875359502631958
H 0.8549955584636285 -1.2671061893724271 -5.029298260064135
H 0.29669890733358417 -1.0305084427658278 -6.430676727230538
O 5.741315715511682 2.3590522178975553 -7.610975610361058
H 5.120507993965535 1.9739054100692517 -8.247550088476817
H 6.569656038314681 2.434404995234401 -8.108103574638111
O 13.42122591993084 -7.225166107751955 -1.3582153629715132
H 13.046317835664881 -7.055924947028006 -0.48085072112136373
H 12.91919358215878 -6.639126629863728 -1.9442897665139418
O 0.6729106679400578 9.532250957730433 -2.75419733730013
H 0.8308939653003118 9.560427531076378 -3.7098200219250104
H 1.5047785608764732 9.847501593607628 -2.3700426945056523
O -4.454202569704269 -4.593549934989236 7.502364189365575
H -4.429053067161894 -3.6923304387562603 7.857523701460429
H -4.52661774088952 -5.153531161675691 8.289853245188539
O 8.488806500183344 -8.78824429354407 -4.432244450231025
H 8.415716400999587 -8.514421445996561 -5.358876115167145
H 8.014318119095902 -9.632491197792662 -4.399535350890251
O 8.441289386892205 -4.6025442917225226 3.5081729142216873
H 7.850196971937333 -5.060083153295141 2.8915406866876
H 7.938676053688823 -4.573349779667973 4.336115824120724
O 6.808998073530406 -1.899044771867976 2.6643421223460066
H 6.993392642472964 -1.4965054112126448 1.8024093738280689
H 7.360893276251921 -1.3949258025988922 3.280976288068321
O 12.660642013021356 2.5582700103756535 3.300465784634622
H 12.53109793124078 2.9358215879111995 4.183438317659319
H 11.760333579291578 2.4383973858778223 2.9627718072660096
C 3.8941583309047205 5.322850393119177 -8.67104987738502
O 3.398338745129633 5.83468090688787 -7.709275100819791
O 4.389977916679809 4.811019879350482 -9.632824653950248