146

C -5.3564454929577465 1.0091607042253532 -0.0734429577464788
C -4.079135492957747 0.16955070422535368 -0.19788295774647868
C -4.333545492957747 -1.2789292957746463 0.3017270422535212
C -3.1403854929577464 -2.1745492957746464 0.7330270422535212
C -2.905235492957746 0.902300704225353 0.41966704225352136
C -2.7423854929577463 1.056130704225354 1.8024770422535212
C -1.8861754929577463 1.3499307042253532 -0.4326129577464788
C -1.5304554929577463 1.5279207042253526 2.3254170422535214
H -3.5237954929577464 0.7301007042253529 2.484817042253521
C -0.6776454929577462 1.8010507042253527 0.08546704225352131
H -1.9759254929577463 1.2426607042253535 -1.5115229577464788
C -0.4680254929577463 1.8513207042253539 1.4698070422535212
H -1.3950654929577464 1.5446707042253527 3.404047042253521
H 0.1461845070422536 1.9972507042253538 -0.6030529577464789
C -1.8679654929577463 -2.0866092957746467 -0.08765295774647863
C -0.6628654929577462 -1.814079295774647 0.5787970422535212
C -1.8438954929577462 -2.213429295774647 -1.4808029577464787
C 0.5129345070422537 -1.5763292957746469 -0.13022295774647863
H -0.6401854929577462 -1.7032692957746463 1.6609470422535213
C -0.6547954929577462 -1.9962392957746466 -2.1933129577464787
H -2.7578654929577464 -2.4351492957746466 -2.026182957746479
C 0.5308845070422537 -1.645769295774647 -1.5261029577464789
H 1.4044045070422537 -1.2610992957746463 0.41551704225352126
H -0.6795654929577464 -2.0467992957746466 -3.2793129577464786
C 1.7843245070422535 -1.2521692957746469 -2.2771629577464787
H 1.4981245070422535 -0.9384492957746469 -3.290282957746479
H 2.241984507042254 -0.38631929577464685 -1.8135029577464787
C 0.9385645070422537 2.0647807042253534 1.9815670422535212
H 1.0508945070422537 1.5807407042253532 2.9609770422535213
H 1.6053245070422537 1.5496207042253536 1.3096170422535214
C 3.9676945070422533 -1.6881692957746468 -3.314052957746479
H 4.795084507042254 -2.398849295774647 -3.4044129577464783
H 3.548404507042253 -1.4816192957746468 -4.303802957746479
H 4.307714507042253 -0.7637192957746466 -2.851282957746479
C 2.344694507042253 -3.565079295774647 -3.101282957746479
H 1.6334345070422536 -4.047909295774646 -2.4251929577464786
H 1.8561845070422536 -3.293109295774647 -4.041792957746479
H 3.1808045070422537 -4.243519295774647 -3.298122957746479
C 3.5156645070422536 -2.648489295774647 -1.1110629577464786
H 3.9311845070422535 -1.748249295774647 -0.6771029577464787
H 2.767184507042254 -3.1044092957746465 -0.45972295774647876
H 4.319224507042254 -3.371819295774647 -1.2863129577464787
C 2.963994507042253 3.381090704225353 2.401027042253521
H 3.3337945070422537 4.369820704225353 2.6912870422535216
H 3.120994507042253 2.671350704225353 3.2183370422535216
H 3.4665445070422534 3.0664207042253535 1.4881370422535212
C 1.2973745070422538 4.282440704225354 0.8488370422535213
H 1.7592145070422538 3.7367207042253527 0.02653704225352116
H 0.23311450704225378 4.4484607042253534 0.6605570422535213
H 1.7921845070422535 5.251370704225354 0.9736770422535213
C 0.7724845070422537 4.194670704225353 3.2772470422535216
H -0.2956954929577462 4.278220704225354 3.057857042253521
H 0.9298945070422537 3.612620704225354 4.190337042253521
H 1.2046345070422537 5.193640704225353 3.3918370422535213
N 2.876084507042253 -2.324759295774647 -2.4576629577464786
N 1.4527845070422536 3.504690704225353 2.1388470422535213
C -3.593905492957746 -3.637819295774647 0.8297870422535213
H -2.8952554929577463 -1.8680692957746468 1.7595270422535212
H -5.022615492957747 -1.2402792957746467 1.1579970422535213
H -4.898275492957747 -1.7933092957746464 -0.48931295774647876
H -3.883675492957746 0.07871070422535364 -1.2758929577464788
H -3.8751654929577466 -4.038529295774646 -0.1505529577464788
H -4.4603554929577465 -3.7321892957746465 1.4932570422535212
H -2.7953554929577464 -4.271929295774647 1.2313670422535212
H -5.648775492957746 1.147700704225353 0.9733970422535213
H -6.189795492957747 0.5254307042253537 -0.5943629577464788
H -5.2178854929577465 2.002970704225354 -0.5139729577464787
C 3.6710445070422537 1.0263707042253536 -0.27764295774647874
O 2.7356545070422538 1.6631507042253526 -0.7327029577464788
O 3.650814507042253 0.3883007042253537 0.7790570422535212
O 4.756604507042254 0.8696707042253538 -0.8334829577464786
O -7.307888225942836 3.805646331508351 1.050612457424985
H -7.564198080535341 4.2260414655293435 0.2160224103777888
H -7.028735034281634 2.915576233483452 0.7882945958766165
O 1.411683075397896 8.9640770762786 7.132376526108293
H 1.086074656839838 8.887917300575493 6.222900741258045
H 0.662929519234928 9.341265701353466 7.6182353508171206
O -2.6326318977668004 2.977036146273342 4.020804724003877
H -2.336694384551434 3.411741386117119 4.834696424185339
H -2.408118242692134 3.6100951343963708 3.3223837330953434
O 3.641799297090536 -10.988294902309088 12.748145954888622
H 3.0911855634850838 -11.233428266865912 13.506895918213905
H 3.1638377737793153 -11.348425911631868 11.986030227024296
O 6.461000755873771 0.07639549642588683 -8.572438517112682
H 6.785521346736981 0.3482814956155642 -9.444064438279797
H 5.693159896052373 -0.48009225289244517 -8.771696498502022
O 1.6421254210542124 -11.16381523489649 -2.9995218234288186
H 0.8231023022690966 -11.154148133175502 -2.481762192963272
H 1.350147037570626 -10.970542376201452 -3.903046128564081
O -7.177493300096007 4.132115627285876 6.892809828523971
H -7.523570442113314 3.680130342150642 7.676970061317215
H -7.970919274138505 4.45260613108755 6.43814181228832
O -1.819204546745998 0.16780590146366503 10.847363890892925
H -2.37799458106048 0.8205518281418409 11.295296709132304
H -2.2171192915130953 -0.6832244463166296 11.084794190884072
O 5.725533301619402 -4.939170937481327 -8.863568583326906
H 5.923348877294604 -5.834502686567795 -9.176965159565471
H 4.927918882998377 -5.050688108229885 -8.324739200185933
O 8.241437144745262 0.7962130049068613 4.908007921004698
H 8.26739791053885 0.8321581987009478 5.8759962156563
H 8.805877122925207 0.04032692970756235 4.686635617741566
O 6.241115919332094 -2.9518784478976583 -5.452244164428556
H 6.249199497854099 -3.6767784001803014 -4.8092651042416
H 5.2993221140417255 -2.8016002924546797 -5.623716752947376
O -4.042961392299832 -10.238521863460955 6.877494969001796
H -4.442777817445179 -11.065928315342148 6.570065714588085
H -4.671331167254632 -9.905283817477319 7.535572301032205
O 3.7121371800765246 0.832417664862704 2.909101114358158
H 2.763842733265703 1.0138332680602473 2.9915230651008518
H 3.8425491298741865 0.6957154081310223 1.958697431361066
O 6.008964092472301 7.3784000558424685 7.199703030592704
H 6.782060676964586 7.960330143183278 7.251146216670964
H 6.076270604008617 6.976977591205373 6.320332924954871
O -8.437291644032683 7.129748827877898 1.68336801021235
H -9.276031720783923 7.454082480756622 1.3224107798350238
H -7.837202502591834 7.8855941232382065 1.5964608407355505
O 3.924690909295119 9.631498016528313 -1.6911749141479098
H 4.072380308777553 10.22690214981084 -2.441274318394175
H 4.5625904157247525 8.915688429446224 -1.8313990170625007
O -0.12560516836542174 -2.3997497239533154 -6.492367763156947
H 0.5314788649687983 -3.074831827713763 -6.719242361161227
H -0.9725605960183875 -2.811396510553357 -6.7207870507642795
O -2.478520770722878 4.939532614770532 -7.115456230925091
H -2.296681737168689 5.412588502377737 -7.941361824789329
H -2.9885376867698983 4.165102184559855 -7.396707361428759
O -2.752047775664468 -13.622020028454902 -1.8841802789912219
H -3.4300760114551614 -13.795963893069192 -2.554246395380944
H -2.0276921308165035 -13.21643448745504 -2.383951439632507
O 8.545559879333279 4.046507587865782 -10.325319225924332
H 9.007320821422248 4.737152837414945 -10.82407099638363
H 8.749881930945536 3.232149163079442 -10.809090659045872
O 9.716834245335537 2.931700707078365 -6.017364145120593
H 9.544281189262165 3.0522725926432837 -6.963226302176819
H 9.111571074022413 2.220906195020147 -5.757769077024335
O -2.493437473727628 -10.75415838558966 0.8532169729079611
H -2.7577545533713934 -11.090230763130407 -0.01635717307540574
H -1.6268507597830002 -10.350610451991878 0.6946657925162278
O 0.4865166986640692 -4.3014207677051 -7.549272215849423
H 0.2571152179424354 -5.242716083585389 -7.566749224877033
H 1.3009555929811314 -4.2492586521316085 -8.0716995748406
O -3.1235147368203595 5.237887400048374 2.7173746946208124
H -3.184612329377554 5.295504434024086 3.6827319955615354
H -3.696958283041519 5.953132708462741 2.4034501935245496
C 5.766430614261278 -13.372352954998604 -5.878677694978313
O 6.273257000831466 -12.562319111283488 -5.157712756016423
O 5.259604227691092 -14.182386798713722 -6.599642633940201