146

C -5.3564454929577465 1.0091607042253532 -0.0734429577464788
C -4.079135492957747 0.16955070422535368 -0.19788295774647868
C -4.333545492957747 -1.2789292957746463 0.3017270422535212
C -3.1403854929577464 -2.1745492957746464 0.7330270422535212
C -2.905235492957746 0.902300704225353 0.41966704225352136
C -2.7423854929577463 1.056130704225354 1.8024770422535212
C -1.8861754929577463 1.3499307042253532 -0.4326129577464788
C -1.5304554929577463 1.5279207042253526 2.3254170422535214
H -3.5237954929577464 0.7301007042253529 2.484817042253521
C -0.6776454929577462 1.8010507042253527 0.08546704225352131
H -1.9759254929577463 1.2426607042253535 -1.5115229577464788
C -0.4680254929577463 1.8513207042253539 1.4698070422535212
H -1.3950654929577464 1.5446707042253527 3.404047042253521
H 0.1461845070422536 1.9972507042253538 -0.6030529577464789
C -1.8679654929577463 -2.0866092957746467 -0.08765295774647863
C -0.6628654929577462 -1.814079295774647 0.5787970422535212
C -1.8438954929577462 -2.213429295774647 -1.4808029577464787
C 0.5129345070422537 -1.5763292957746469 -0.13022295774647863
H -0.6401854929577462 -1.7032692957746463 1.6609470422535213
C -0.6547954929577462 -1.9962392957746466 -2.1933129577464787
H -2.7578654929577464 -2.4351492957746466 -2.026182957746479
C 0.5308845070422537 -1.645769295774647 -1.5261029577464789
H 1.4044045070422537 -1.2610992957746463 0.41551704225352126
H -0.6795654929577464 -2.0467992957746466 -3.2793129577464786
C 1.7843245070422535 -1.2521692957746469 -2.2771629577464787
H 1.4981245070422535 -0.9384492957746469 -3.290282957746479
H 2.241984507042254 -0.38631929577464685 -1.8135029577464787
C 0.9385645070422537 2.0647807042253534 1.9815670422535212
H 1.0508945070422537 1.5807407042253532 2.9609770422535213
H 1.6053245070422537 1.5496207042253536 1.3096170422535214
C 3.9676945070422533 -1.6881692957746468 -3.314052957746479
H 4.795084507042254 -2.398849295774647 -3.4044129577464783
H 3.548404507042253 -1.4816192957746468 -4.303802957746479
H 4.307714507042253 -0.7637192957746466 -2.851282957746479
C 2.344694507042253 -3.565079295774647 -3.101282957746479
H 1.6334345070422536 -4.047909295774646 -2.4251929577464786
H 1.8561845070422536 -3.293109295774647 -4.041792957746479
H 3.1808045070422537 -4.243519295774647 -3.298122957746479
C 3.5156645070422536 -2.648489295774647 -1.1110629577464786
H 3.9311845070422535 -1.748249295774647 -0.6771029577464787
H 2.767184507042254 -3.1044092957746465 -0.45972295774647876
H 4.319224507042254 -3.371819295774647 -1.2863129577464787
C 2.963994507042253 3.381090704225353 2.401027042253521
H 3.3337945070422537 4.369820704225353 2.6912870422535216
H 3.120994507042253 2.671350704225353 3.2183370422535216
H 3.4665445070422534 3.0664207042253535 1.4881370422535212
C 1.2973745070422538 4.282440704225354 0.8488370422535213
H 1.7592145070422538 3.7367207042253527 0.02653704225352116
H 0.23311450704225378 4.4484607042253534 0.6605570422535213
H 1.7921845070422535 5.251370704225354 0.9736770422535213
C 0.7724845070422537 4.194670704225353 3.2772470422535216
H -0.2956954929577462 4.278220704225354 3.057857042253521
H 0.9298945070422537 3.612620704225354 4.190337042253521
H 1.2046345070422537 5.193640704225353 3.3918370422535213
N 2.876084507042253 -2.324759295774647 -2.4576629577464786
N 1.4527845070422536 3.504690704225353 2.1388470422535213
C -3.593905492957746 -3.637819295774647 0.8297870422535213
H -2.8952554929577463 -1.8680692957746468 1.7595270422535212
H -5.022615492957747 -1.2402792957746467 1.1579970422535213
H -4.898275492957747 -1.7933092957746464 -0.48931295774647876
H -3.883675492957746 0.07871070422535364 -1.2758929577464788
H -3.8751654929577466 -4.038529295774646 -0.1505529577464788
H -4.4603554929577465 -3.7321892957746465 1.4932570422535212
H -2.7953554929577464 -4.271929295774647 1.2313670422535212
H -5.648775492957746 1.147700704225353 0.9733970422535213
H -6.189795492957747 0.5254307042253537 -0.5943629577464788
H -5.2178854929577465 2.002970704225354 -0.5139729577464787
C 3.6710445070422537 1.0263707042253536 -0.27764295774647874
O 2.7356545070422538 1.6631507042253526 -0.7327029577464788
O 3.650814507042253 0.3883007042253537 0.7790570422535212
O 4.756604507042254 0.8696707042253538 -0.8334829577464786
O 11.42571453021815 3.751464466551931 -1.7854215619965705
H 11.952936794939227 3.0895608924466966 -1.3133117240678347
H 11.131280823962436 3.289495386098503 -2.5847058078225067
O -6.9629815560792885 -6.776905152286743 2.423180728539935
H -7.464959964361393 -7.426991486333902 1.9090087798654756
H -7.405656116061907 -5.936085577527313 2.233381832480009
O 8.147126016139023 3.0614068418104545 -9.193175166551912
H 8.832325355157844 2.416441863145331 -8.961897413614732
H 8.430132627687868 3.405093132286452 -10.0538428932958
O -8.527749958865595 -0.679943914204328 0.330296888584559
H -8.597138026496307 -0.7059979818916915 -0.635867610104675
H -9.307478023660536 -1.1684318820993869 0.6342139734825449
O 3.6922060632468208 -3.8411519654126183 -4.69027859546711
H 4.194128151198116 -3.4697348985343837 -5.431285300536761
H 2.9281365412477856 -4.261695022259039 -5.1125382871148375
O 7.064703461975413 -6.606543942261381 -2.130349039470816
H 6.770905553731949 -6.272488675282699 -2.9911958461766126
H 6.530740485452454 -6.110166762362997 -1.4920268799942173
O -1.8505957721896602 -9.195896209395759 -1.9388514076038708
H -1.0398436949962002 -8.886277803692307 -1.5078237181497642
H -1.9919077475662217 -8.559870015595285 -2.6561125530138656
O 2.6663687175561943 8.420480504396144 3.668980604221008
H 2.262908870539357 8.906887507435616 2.934408799603304
H 3.3987416265620674 8.988545458767028 3.951636002311829
O -6.552994772673103 4.514936466929731 -10.645860938615463
H -6.555947621141425 4.550809268878243 -11.614195477742458
H -6.764826381836288 3.5909043792132858 -10.4452269072805
O 7.265547484566449 -2.4025470767400274 -4.516486464458573
H 7.071576635916732 -3.3409541581111775 -4.660482354700589
H 6.69997146699369 -2.1587449748501912 -3.7683913850999162
O -0.1120728763277863 8.961237053709578 -6.035208629639936
H 0.838404892568335 8.919872096506912 -6.2191877264142
H -0.16270199389756113 8.977532033829908 -5.067668909330229
O -6.986908009619644 -5.6564774204063495 13.35949101706159
H -7.793882038604535 -6.156752869200276 13.553100801881282
H -7.0621102951460735 -5.446779804871618 12.416446229901062
O -8.027680533696275 3.2565360033473496 10.647853213317504
H -8.955294207606011 3.5237063325100255 10.73223475212066
H -7.797973219462291 3.49296115541996 9.736645420574897
O 8.070741845223878 11.409217093778787 -10.420809824490172
H 8.233630702299315 11.412426145997372 -11.376018848277385
H 7.104849823925261 11.435904443519544 -10.347992705242802
O -1.2360168325538554 -4.708607126186605 4.97725108640752
H -1.2886362942938185 -4.951016541233075 5.913966744781513
H -0.7475175169852554 -5.441321826492731 4.572949799068102
O 1.1367561064210514 -2.318514947917815 8.130535566969629
H 0.6522442518165852 -2.529726455993057 8.942696461438407
H 0.6517078421553977 -1.5672685207646997 7.757281054173661
O -8.160128064940842 -4.8331206123223645 3.326347834076432
H -7.52060555847482 -4.161446865973799 3.6071194478295023
H -8.680556092091834 -5.008954185730323 4.124595394247031
O 13.881471934782569 4.752387511547823 4.757703377391976
H 14.663497094852445 4.4021001059774765 5.210144245811793
H 13.165200704565326 4.628354151644428 5.3984320209643935
O -3.337215526612723 -8.708999640008196 -5.721082079529447
H -3.8014767329785957 -7.905373752980439 -5.999675551927052
H -3.9721829294715065 -9.157516455033742 -5.142626369689782
O 5.608361338154105 -6.947326988588256 8.98310291144193
H 5.687678284928687 -6.760163354364699 9.93054470536839
H 6.35273086099337 -6.4697995607931285 8.587068173733968
O 9.53781343615004 -11.497761282211913 1.6168532855182738
H 8.767802140278839 -11.932758607696535 2.0128675377264207
H 9.295385176579522 -10.559676108787766 1.6031898063347771
O -0.9933861245165048 7.84667925017833 -11.395556556656
H -1.883554024838165 8.215392574810766 -11.498604848128604
H -0.9498470902653415 7.149098799392846 -12.066710645877247
O 1.260424999526728 -7.365177239260977 -1.9289159714025135
H 0.340510206939213 -7.2616115311669835 -2.2152693813449478
H 1.580732622599931 -6.455298944898592 -1.8367939851593178
O 1.062578774143304 -0.6266953397584045 10.653830066625623
H 0.722887318139855 0.03830430803651297 11.271367547310717
H 0.36996217068793325 -1.304110616647343 10.635049024177787
C -7.85953722568158 -1.3726490608711872 9.21183707160185
O -7.878407104866389 -0.5006905742599601 8.391989169496703
O -7.84066734649677 -2.2446075474824143 10.031684973706998