146

C -5.3564454929577465 1.0091607042253532 -0.0734429577464788
C -4.079135492957747 0.16955070422535368 -0.19788295774647868
C -4.333545492957747 -1.2789292957746463 0.3017270422535212
C -3.1403854929577464 -2.1745492957746464 0.7330270422535212
C -2.905235492957746 0.902300704225353 0.41966704225352136
C -2.7423854929577463 1.056130704225354 1.8024770422535212
C -1.8861754929577463 1.3499307042253532 -0.4326129577464788
C -1.5304554929577463 1.5279207042253526 2.3254170422535214
H -3.5237954929577464 0.7301007042253529 2.484817042253521
C -0.6776454929577462 1.8010507042253527 0.08546704225352131
H -1.9759254929577463 1.2426607042253535 -1.5115229577464788
C -0.4680254929577463 1.8513207042253539 1.4698070422535212
H -1.3950654929577464 1.5446707042253527 3.404047042253521
H 0.1461845070422536 1.9972507042253538 -0.6030529577464789
C -1.8679654929577463 -2.0866092957746467 -0.08765295774647863
C -0.6628654929577462 -1.814079295774647 0.5787970422535212
C -1.8438954929577462 -2.213429295774647 -1.4808029577464787
C 0.5129345070422537 -1.5763292957746469 -0.13022295774647863
H -0.6401854929577462 -1.7032692957746463 1.6609470422535213
C -0.6547954929577462 -1.9962392957746466 -2.1933129577464787
H -2.7578654929577464 -2.4351492957746466 -2.026182957746479
C 0.5308845070422537 -1.645769295774647 -1.5261029577464789
H 1.4044045070422537 -1.2610992957746463 0.41551704225352126
H -0.6795654929577464 -2.0467992957746466 -3.2793129577464786
C 1.7843245070422535 -1.2521692957746469 -2.2771629577464787
H 1.4981245070422535 -0.9384492957746469 -3.290282957746479
H 2.241984507042254 -0.38631929577464685 -1.8135029577464787
C 0.9385645070422537 2.0647807042253534 1.9815670422535212
H 1.0508945070422537 1.5807407042253532 2.9609770422535213
H 1.6053245070422537 1.5496207042253536 1.3096170422535214
C 3.9676945070422533 -1.6881692957746468 -3.314052957746479
H 4.795084507042254 -2.398849295774647 -3.4044129577464783
H 3.548404507042253 -1.4816192957746468 -4.303802957746479
H 4.307714507042253 -0.7637192957746466 -2.851282957746479
C 2.344694507042253 -3.565079295774647 -3.101282957746479
H 1.6334345070422536 -4.047909295774646 -2.4251929577464786
H 1.8561845070422536 -3.293109295774647 -4.041792957746479
H 3.1808045070422537 -4.243519295774647 -3.298122957746479
C 3.5156645070422536 -2.648489295774647 -1.1110629577464786
H 3.9311845070422535 -1.748249295774647 -0.6771029577464787
H 2.767184507042254 -3.1044092957746465 -0.45972295774647876
H 4.319224507042254 -3.371819295774647 -1.2863129577464787
C 2.963994507042253 3.381090704225353 2.401027042253521
H 3.3337945070422537 4.369820704225353 2.6912870422535216
H 3.120994507042253 2.671350704225353 3.2183370422535216
H 3.4665445070422534 3.0664207042253535 1.4881370422535212
C 1.2973745070422538 4.282440704225354 0.8488370422535213
H 1.7592145070422538 3.7367207042253527 0.02653704225352116
H 0.23311450704225378 4.4484607042253534 0.6605570422535213
H 1.7921845070422535 5.251370704225354 0.9736770422535213
C 0.7724845070422537 4.194670704225353 3.2772470422535216
H -0.2956954929577462 4.278220704225354 3.057857042253521
H 0.9298945070422537 3.612620704225354 4.190337042253521
H 1.2046345070422537 5.193640704225353 3.3918370422535213
N 2.876084507042253 -2.324759295774647 -2.4576629577464786
N 1.4527845070422536 3.504690704225353 2.1388470422535213
C -3.593905492957746 -3.637819295774647 0.8297870422535213
H -2.8952554929577463 -1.8680692957746468 1.7595270422535212
H -5.022615492957747 -1.2402792957746467 1.1579970422535213
H -4.898275492957747 -1.7933092957746464 -0.48931295774647876
H -3.883675492957746 0.07871070422535364 -1.2758929577464788
H -3.8751654929577466 -4.038529295774646 -0.1505529577464788
H -4.4603554929577465 -3.7321892957746465 1.4932570422535212
H -2.7953554929577464 -4.271929295774647 1.2313670422535212
H -5.648775492957746 1.147700704225353 0.9733970422535213
H -6.189795492957747 0.5254307042253537 -0.5943629577464788
H -5.2178854929577465 2.002970704225354 -0.5139729577464787
C 3.6710445070422537 1.0263707042253536 -0.27764295774647874
O 2.7356545070422538 1.6631507042253526 -0.7327029577464788
O 3.650814507042253 0.3883007042253537 0.7790570422535212
O 4.756604507042254 0.8696707042253538 -0.8334829577464786
O 9.787676835496708 3.1208066191866335 -2.4305747997845915
H 10.429517188161412 3.068608309196915 -1.706500456208281
H 8.928849484272893 3.048038632409718 -1.987762937714119
O 5.587541220953943 0.47163404042112167 2.620339885729771
H 5.163045933981307 -0.22078617179805016 3.1488522866707314
H 4.9358406063402605 0.6734905435419616 1.9322249205095874
O -8.684358488101743 7.407148248085985 3.926163863471369
H -9.01364451596612 8.286206764716871 3.6857596349478134
H -8.683332586624392 6.920386235541607 3.0882953565027007
O 11.560142002652402 3.7672699785898245 -3.3313381537825437
H 12.249738605209274 3.733035845162668 -2.651447054597894
H 11.376908584133036 2.835870934935252 -3.5259744302498404
O -4.859018711814175 8.632091905215491 -10.496863519271976
H -5.077628187865039 8.674891697647286 -11.439914648134334
H -5.336775665540722 7.85042854403087 -10.181090456381092
O -2.5758431822546637 -9.576215170240665 -0.3668397559985135
H -3.4657990669074312 -9.42729610725574 -0.013613209782626479
H -1.9916424365387515 -9.384276511923057 0.3820467403734058
O -5.482299137128444 2.7936499472948864 7.649776605854866
H -5.5096305875209355 2.270312410465707 6.834707178588076
H -6.347780514753919 2.638184451119396 8.056881517127644
O -4.055792815967597 -1.1970974700270158 8.361370088688357
H -4.680082379842702 -1.0582686126940746 7.633389013585259
H -4.280395308494548 -0.502034424811403 8.998082761584289
O 1.6209594385417008 -3.2874757183122405 9.854845480982396
H 2.4406548349527593 -2.891498925001707 10.186913535998269
H 1.4078347820260464 -3.9686660722261795 10.510222873649925
O -9.174507047189211 -8.081432781605589 -0.12472506416101048
H -8.939613615881662 -8.997351460486115 -0.33658682688925
H -10.04965795587357 -8.15304122058527 0.28508594447081315
O -6.62319286414677 -4.516665190762563 5.014159319754218
H -6.445079220169662 -4.588141328998104 5.963966694116057
H -7.281104014615797 -3.8079615432761185 4.952078707418865
O 7.42561094028708 10.023032567841604 -2.760157892060537
H 7.670037755017582 9.8159477766857 -3.6746734897474314
H 6.885573121584508 9.266886092691456 -2.4852695387441917
O 0.6538292879861363 -9.18311076683934 -2.35301443362527
H 0.7113512679658154 -9.429903003443282 -1.4177325666614964
H 1.5314562669058374 -9.394443892915397 -2.7052517683801174
O 6.905869834436978 5.201270581946952 5.962601519591511
H 6.98388844953951 4.621579373302423 5.190048249442631
H 6.222719562554156 5.839653785463234 5.708171694699233
O 5.349347709887686 3.93371857827241 11.152718997738347
H 5.058190038989775 3.775148033351619 12.063240798609048
H 5.435731121616734 4.8973689463219525 11.099073693787021
O -6.368357138517058 -8.331649292770404 7.0267501798397
H -6.408497213806124 -8.354420244669965 6.058846457868667
H -7.016777500651946 -8.996378817912188 7.3036032756750915
O 7.1371830665019225 -2.896735530318196 5.3783699235537625
H 6.176966301525241 -2.7956191319978787 5.296354101004409
H 7.247691002240828 -3.4531012376983323 6.163995241431264
O 9.461327185376954 6.086651879142919 -0.5048017784884204
H 9.06555541318295 6.94430881720569 -0.28856894604336025
H 8.755106693427102 5.44958351313847 -0.3194414319022858
O 8.799065072452795 -6.188056703428716 0.5073548048824845
H 8.76406254292117 -5.764273390237532 1.3780728323099019
H 7.99141574961901 -5.8841990655806615 0.06652031037516037
O -5.745182160958143 2.791637322669994 -10.549875506274978
H -6.092089629228093 3.2704297423976083 -11.31758663956009
H -5.664013762996255 3.4733098808881637 -9.865992359206274
O -3.710491401810787 -6.704599810017268 6.181771027282154
H -3.344295346041713 -5.9893802125166316 6.723369340601354
H -4.666134722983967 -6.645186059855146 6.330693132050944
O -10.766618026396984 1.5226720428097487 5.262119049290495
H -10.51707631619801 0.9804214592260436 4.498796970234671
H -11.567604542838673 1.9832769987834773 4.970184777045784
O 2.1971069873346334 -6.361910857399728 -5.649144874172951
H 1.8597343938130464 -5.45977310893039 -5.542868946384989
H 2.3248231829578367 -6.67262791401581 -4.740241453339156
O -6.491621238658557 -2.5906546344663868 -2.11477828679876
H -5.869337966560645 -2.472397834701588 -1.3814664735320545
H -6.20532007839485 -3.4160790713667293 -2.53390605836658
C -1.67154826615457 1.4120936349073872 10.059154462721091
O -2.0878139675923046 1.031949141760363 9.00320404369729
O -1.2552825647168353 1.7922381280544104 11.115104881744895