146

C -5.3564454929577465 1.0091607042253532 -0.0734429577464788
C -4.079135492957747 0.16955070422535368 -0.19788295774647868
C -4.333545492957747 -1.2789292957746463 0.3017270422535212
C -3.1403854929577464 -2.1745492957746464 0.7330270422535212
C -2.905235492957746 0.902300704225353 0.41966704225352136
C -2.7423854929577463 1.056130704225354 1.8024770422535212
C -1.8861754929577463 1.3499307042253532 -0.4326129577464788
C -1.5304554929577463 1.5279207042253526 2.3254170422535214
H -3.5237954929577464 0.7301007042253529 2.484817042253521
C -0.6776454929577462 1.8010507042253527 0.08546704225352131
H -1.9759254929577463 1.2426607042253535 -1.5115229577464788
C -0.4680254929577463 1.8513207042253539 1.4698070422535212
H -1.3950654929577464 1.5446707042253527 3.404047042253521
H 0.1461845070422536 1.9972507042253538 -0.6030529577464789
C -1.8679654929577463 -2.0866092957746467 -0.08765295774647863
C -0.6628654929577462 -1.814079295774647 0.5787970422535212
C -1.8438954929577462 -2.213429295774647 -1.4808029577464787
C 0.5129345070422537 -1.5763292957746469 -0.13022295774647863
H -0.6401854929577462 -1.7032692957746463 1.6609470422535213
C -0.6547954929577462 -1.9962392957746466 -2.1933129577464787
H -2.7578654929577464 -2.4351492957746466 -2.026182957746479
C 0.5308845070422537 -1.645769295774647 -1.5261029577464789
H 1.4044045070422537 -1.2610992957746463 0.41551704225352126
H -0.6795654929577464 -2.0467992957746466 -3.2793129577464786
C 1.7843245070422535 -1.2521692957746469 -2.2771629577464787
H 1.4981245070422535 -0.9384492957746469 -3.290282957746479
H 2.241984507042254 -0.38631929577464685 -1.8135029577464787
C 0.9385645070422537 2.0647807042253534 1.9815670422535212
H 1.0508945070422537 1.5807407042253532 2.9609770422535213
H 1.6053245070422537 1.5496207042253536 1.3096170422535214
C 3.9676945070422533 -1.6881692957746468 -3.314052957746479
H 4.795084507042254 -2.398849295774647 -3.4044129577464783
H 3.548404507042253 -1.4816192957746468 -4.303802957746479
H 4.307714507042253 -0.7637192957746466 -2.851282957746479
C 2.344694507042253 -3.565079295774647 -3.101282957746479
H 1.6334345070422536 -4.047909295774646 -2.4251929577464786
H 1.8561845070422536 -3.293109295774647 -4.041792957746479
H 3.1808045070422537 -4.243519295774647 -3.298122957746479
C 3.5156645070422536 -2.648489295774647 -1.1110629577464786
H 3.9311845070422535 -1.748249295774647 -0.6771029577464787
H 2.767184507042254 -3.1044092957746465 -0.45972295774647876
H 4.319224507042254 -3.371819295774647 -1.2863129577464787
C 2.963994507042253 3.381090704225353 2.401027042253521
H 3.3337945070422537 4.369820704225353 2.6912870422535216
H 3.120994507042253 2.671350704225353 3.2183370422535216
H 3.4665445070422534 3.0664207042253535 1.4881370422535212
C 1.2973745070422538 4.282440704225354 0.8488370422535213
H 1.7592145070422538 3.7367207042253527 0.02653704225352116
H 0.23311450704225378 4.4484607042253534 0.6605570422535213
H 1.7921845070422535 5.251370704225354 0.9736770422535213
C 0.7724845070422537 4.194670704225353 3.2772470422535216
H -0.2956954929577462 4.278220704225354 3.057857042253521
H 0.9298945070422537 3.612620704225354 4.190337042253521
H 1.2046345070422537 5.193640704225353 3.3918370422535213
N 2.876084507042253 -2.324759295774647 -2.4576629577464786
N 1.4527845070422536 3.504690704225353 2.1388470422535213
C -3.593905492957746 -3.637819295774647 0.8297870422535213
H -2.8952554929577463 -1.8680692957746468 1.7595270422535212
H -5.022615492957747 -1.2402792957746467 1.1579970422535213
H -4.898275492957747 -1.7933092957746464 -0.48931295774647876
H -3.883675492957746 0.07871070422535364 -1.2758929577464788
H -3.8751654929577466 -4.038529295774646 -0.1505529577464788
H -4.4603554929577465 -3.7321892957746465 1.4932570422535212
H -2.7953554929577464 -4.271929295774647 1.2313670422535212
H -5.648775492957746 1.147700704225353 0.9733970422535213
H -6.189795492957747 0.5254307042253537 -0.5943629577464788
H -5.2178854929577465 2.002970704225354 -0.5139729577464787
C 3.6710445070422537 1.0263707042253536 -0.27764295774647874
O 2.7356545070422538 1.6631507042253526 -0.7327029577464788
O 3.650814507042253 0.3883007042253537 0.7790570422535212
O 4.756604507042254 0.8696707042253538 -0.8334829577464786
O 0.49343276045436296 -5.333456479610943 7.1774078325138655
H 0.526489981691995 -5.907108314829203 7.9576630144734395
H 1.4135735939167806 -5.057284724043362 7.050790486459671
O 8.036192698543497 -4.47372278797182 5.345855630494816
H 8.947342257812627 -4.417813395548826 5.0208202825977555
H 7.516674771446404 -4.0198342954837 4.665379103264375
O 7.100453010231478 3.899518209990518 -5.809625488325122
H 7.275876393231855 3.001399878818591 -5.490913303415825
H 6.343192831312637 3.7929523124630604 -6.404741170531507
O -5.770676988975354 4.432046816080853 -4.511118179673659
H -6.505460755877369 4.0618243520722475 -3.99926321980643
H -6.103703622494268 5.2912481632239 -4.81083179420365
O 4.987642685740889 1.3240625231392693 3.179246096589038
H 5.074951993639906 1.899617127253786 3.95389526836732
H 4.194731234371001 0.7992219076706778 3.3657821599683384
O 9.709891751952803 9.844443463161193 6.327203912654098
H 9.550745368153109 9.046577641540969 6.8535592262149745
H 10.26472566597367 9.535264743832816 5.595404902223811
O 9.985255793223006 -4.171308192112544 -2.0820678330528595
H 10.303234048519222 -4.747787319552238 -2.7930734600946883
H 10.55205177046738 -4.39463424566296 -1.3285230511817416
O -9.169495162988367 -2.842332659515123 -0.2624290676877097
H -10.077718838345174 -2.9303440917432546 0.06368609635488376
H -8.79625025109211 -2.1272831844772715 0.2745573644422348
O -4.326655976471632 7.485535403533533 9.763297396916792
H -4.1171639623298 7.3707265862052385 10.702392380597614
H -3.459488705007372 7.514027783615851 9.331821960908584
O -3.5380201046587345 -6.472798572058417 -5.474916510995217
H -2.6365636741244076 -6.305949600285215 -5.161061319280092
H -4.006873211182414 -6.783363069688964 -4.685810433452673
O -0.8837744410069894 -8.518860208360413 6.069711804458543
H -1.0098883290179006 -8.853824794397735 5.169233392584267
H -0.9512785167719331 -9.30989682422444 6.625289176583712
O -3.996456039197889 -1.3456844907550538 6.172386052024103
H -4.033122581097603 -1.1581842606730215 7.122368465189895
H -3.4682978971852565 -2.155991358385984 6.1139591609899835
O 0.7688180861858207 -9.875703861389992 -3.8512474214647807
H 1.0446887228190844 -10.39442867364414 -3.0806714564259927
H 0.7533337435864418 -8.963146260682375 -3.525731208619671
O -4.658447609193987 7.831732705194309 -3.528943429059547
H -4.063137577640578 7.223611825682383 -3.992367985091617
H -5.529507308652581 7.415468123664537 -3.612254547422854
O 6.158967000243359 8.621728994545428 -3.1057419789963747
H 7.113951487052537 8.469068702037639 -3.1662962682354454
H 5.821593107861797 8.339386043879028 -3.969120956762399
O 12.216993773311176 10.100075193757561 2.867594894937853
H 12.276867831195869 9.43420551096748 2.166167764272478
H 11.610350884801887 10.764736071733335 2.5081894589611884
O -1.2559065695275222 -10.943510379779804 -3.075756660652885
H -1.1937612530356525 -10.605759650886432 -2.1696497344735715
H -0.6461757170677223 -11.69654396178485 -3.0871871563243523
O -2.2273319519551222 3.295566272881476 7.965940414814266
H -2.2823610285313167 3.2799360837848557 6.998627200379575
H -2.682989648239743 4.114254207326211 8.213100432032272
O 0.957010803985152 -8.508208411198886 1.657729134139901
H 0.7675250077409429 -8.437469781009593 0.7100696298237983
H 1.3543247584000742 -7.653189350902416 1.881438705810218
O 1.7986551594491873 10.039659845539651 0.6681177438266708
H 0.9837843736308298 9.520920848447238 0.591548740859865
H 1.7572827427195723 10.409828881753977 1.5626707898010879
O -5.529893034622972 -4.784917847752531 -8.508347001034018
H -5.606777817139719 -4.319111958187517 -9.354562671158305
H -4.638082786541631 -4.564514162627441 -8.200031186810394
O -7.6788779490609995 -9.492841038316026 -2.4130061005211294
H -6.88878175731664 -9.328314016003405 -2.9493327021548734
H -7.8812859162815725 -8.629047981752572 -2.02332095256396
O -5.794184698392445 1.167935885485314 8.392906681294933
H -5.384002123587188 0.29923908546453726 8.519727349404647
H -6.098412338022655 1.1510809260155668 7.473057020792575
O -3.6931842026972115 -7.600898091524882 -7.645326377715186
H -3.169427165957136 -7.709704286942104 -8.453291188337582
H -4.590341445956347 -7.430079369488228 -7.9691963969658595
C -5.123523933515516 -4.825567184815754 4.4272306732864655
O -6.009892347157158 -5.609007004699144 4.244497695366552
O -4.237155519873873 -4.042127364932364 4.609963651206379