146

C -5.3564454929577465 1.0091607042253532 -0.0734429577464788
C -4.079135492957747 0.16955070422535368 -0.19788295774647868
C -4.333545492957747 -1.2789292957746463 0.3017270422535212
C -3.1403854929577464 -2.1745492957746464 0.7330270422535212
C -2.905235492957746 0.902300704225353 0.41966704225352136
C -2.7423854929577463 1.056130704225354 1.8024770422535212
C -1.8861754929577463 1.3499307042253532 -0.4326129577464788
C -1.5304554929577463 1.5279207042253526 2.3254170422535214
H -3.5237954929577464 0.7301007042253529 2.484817042253521
C -0.6776454929577462 1.8010507042253527 0.08546704225352131
H -1.9759254929577463 1.2426607042253535 -1.5115229577464788
C -0.4680254929577463 1.8513207042253539 1.4698070422535212
H -1.3950654929577464 1.5446707042253527 3.404047042253521
H 0.1461845070422536 1.9972507042253538 -0.6030529577464789
C -1.8679654929577463 -2.0866092957746467 -0.08765295774647863
C -0.6628654929577462 -1.814079295774647 0.5787970422535212
C -1.8438954929577462 -2.213429295774647 -1.4808029577464787
C 0.5129345070422537 -1.5763292957746469 -0.13022295774647863
H -0.6401854929577462 -1.7032692957746463 1.6609470422535213
C -0.6547954929577462 -1.9962392957746466 -2.1933129577464787
H -2.7578654929577464 -2.4351492957746466 -2.026182957746479
C 0.5308845070422537 -1.645769295774647 -1.5261029577464789
H 1.4044045070422537 -1.2610992957746463 0.41551704225352126
H -0.6795654929577464 -2.0467992957746466 -3.2793129577464786
C 1.7843245070422535 -1.2521692957746469 -2.2771629577464787
H 1.4981245070422535 -0.9384492957746469 -3.290282957746479
H 2.241984507042254 -0.38631929577464685 -1.8135029577464787
C 0.9385645070422537 2.0647807042253534 1.9815670422535212
H 1.0508945070422537 1.5807407042253532 2.9609770422535213
H 1.6053245070422537 1.5496207042253536 1.3096170422535214
C 3.9676945070422533 -1.6881692957746468 -3.314052957746479
H 4.795084507042254 -2.398849295774647 -3.4044129577464783
H 3.548404507042253 -1.4816192957746468 -4.303802957746479
H 4.307714507042253 -0.7637192957746466 -2.851282957746479
C 2.344694507042253 -3.565079295774647 -3.101282957746479
H 1.6334345070422536 -4.047909295774646 -2.4251929577464786
H 1.8561845070422536 -3.293109295774647 -4.041792957746479
H 3.1808045070422537 -4.243519295774647 -3.298122957746479
C 3.5156645070422536 -2.648489295774647 -1.1110629577464786
H 3.9311845070422535 -1.748249295774647 -0.6771029577464787
H 2.767184507042254 -3.1044092957746465 -0.45972295774647876
H 4.319224507042254 -3.371819295774647 -1.2863129577464787
C 2.963994507042253 3.381090704225353 2.401027042253521
H 3.3337945070422537 4.369820704225353 2.6912870422535216
H 3.120994507042253 2.671350704225353 3.2183370422535216
H 3.4665445070422534 3.0664207042253535 1.4881370422535212
C 1.2973745070422538 4.282440704225354 0.8488370422535213
H 1.7592145070422538 3.7367207042253527 0.02653704225352116
H 0.23311450704225378 4.4484607042253534 0.6605570422535213
H 1.7921845070422535 5.251370704225354 0.9736770422535213
C 0.7724845070422537 4.194670704225353 3.2772470422535216
H -0.2956954929577462 4.278220704225354 3.057857042253521
H 0.9298945070422537 3.612620704225354 4.190337042253521
H 1.2046345070422537 5.193640704225353 3.3918370422535213
N 2.876084507042253 -2.324759295774647 -2.4576629577464786
N 1.4527845070422536 3.504690704225353 2.1388470422535213
C -3.593905492957746 -3.637819295774647 0.8297870422535213
H -2.8952554929577463 -1.8680692957746468 1.7595270422535212
H -5.022615492957747 -1.2402792957746467 1.1579970422535213
H -4.898275492957747 -1.7933092957746464 -0.48931295774647876
H -3.883675492957746 0.07871070422535364 -1.2758929577464788
H -3.8751654929577466 -4.038529295774646 -0.1505529577464788
H -4.4603554929577465 -3.7321892957746465 1.4932570422535212
H -2.7953554929577464 -4.271929295774647 1.2313670422535212
H -5.648775492957746 1.147700704225353 0.9733970422535213
H -6.189795492957747 0.5254307042253537 -0.5943629577464788
H -5.2178854929577465 2.002970704225354 -0.5139729577464787
C 3.6710445070422537 1.0263707042253536 -0.27764295774647874
O 2.7356545070422538 1.6631507042253526 -0.7327029577464788
O 3.650814507042253 0.3883007042253537 0.7790570422535212
O 4.756604507042254 0.8696707042253538 -0.8334829577464786
O 5.06951586366065 -0.1572221745028419 6.933918369848748
H 5.484312376645793 -0.4873388468810787 7.745049797136144
H 5.81890633211707 0.054451573548081 6.357229463701993
O 8.244202077924431 -8.363485949572153 -6.528081187581842
H 7.435009240904144 -8.557773124765802 -6.031667244415123
H 8.485312200853318 -7.469598856435299 -6.242085177741563
O -0.9504992722523053 3.758195517903248 -0.844922192971518
H -1.6977311961410773 4.368225213034465 -0.7528592803541165
H -0.6883820326166175 3.8476127790474077 -1.7735023189677852
O 3.9002283988088173 -3.6462942893827894 8.838700389501662
H 3.3857336451162485 -2.847086343551263 9.027192205352053
H 4.503140206410441 -3.3748820518122775 8.130325704852703
O 10.56543665985349 3.619606462108449 -6.595939929319373
H 10.407754604217477 3.6834428809675512 -5.641985717704555
H 10.417784736863911 4.52135755608691 -6.918439260242909
O 9.100044145614243 -10.011607289785257 1.533313261581114
H 9.246098745689013 -9.860020160451587 0.5874502942769819
H 8.260475969358477 -9.563313236063994 1.715301346676607
O 3.46030686103717 3.2412639547622155 11.127535533358198
H 3.5788200517611344 3.995130491266614 11.724701528424303
H 2.5040100990064404 3.21252142783258 10.973807480045735
O -0.3225619147360699 -0.569550307982845 -6.861602334768462
H -0.6218228364958318 -1.259100043249437 -6.250103013263302
H -0.07729825410111246 -1.0571244016497356 -7.662276540832858
O 8.327126138786776 2.8726610110850253 4.545201099589296
H 9.102597366419056 3.44708371752923 4.4577351843091115
H 8.623234071532536 2.023230612751905 4.184992778124246
O 6.080744836178079 -2.357034115734337 5.015808294892894
H 5.313768447107047 -2.0046039445603543 4.539880201633168
H 6.503396092224365 -2.9473823955162937 4.374078781296254
O -2.7090263263874634 0.8224009413413855 -12.095883632958394
H -2.6176644497663215 0.8206992078070661 -13.060568798441539
H -2.0389593206859224 0.1898163166559893 -11.796202394336742
O -11.631468753956575 -1.6175061141492284 -3.408068983647375
H -11.2599595018212 -1.1516563034392129 -4.172223540225597
H -11.142198760998264 -1.2567416192884213 -2.6534659108081504
O -5.56936346243817 0.47184457815109804 -9.604161280129123
H -5.815592995099877 0.24039574417212828 -8.695992897396618
H -6.418947478505077 0.5602582823542712 -10.06171123461792
O 10.125668918460331 -6.414671163948835 -6.75148411156998
H 10.298287382406617 -6.576545324489672 -7.691147337919732
H 10.813047171469542 -6.923732656728815 -6.2961496431200015
O 0.061389533084627246 -0.8820109772478419 11.798039341115704
H 0.8947633474591798 -0.869298332205469 11.303778447385644
H -0.07303549157945 -1.8188013604503448 12.006163426659327
O 5.5992063173617 6.4234872163864125 0.30232852237731556
H 5.376639790887093 5.508133299443487 0.5293939423123442
H 4.896129488365336 6.6906604658571105 -0.3086243167155936
O 4.618122853458153 14.407581562189996 -1.0348275893202528
H 4.911338658143704 15.081138880874171 -1.6667392819083786
H 3.7330112900876333 14.702170538302624 -0.7726124108108676
O 5.5174636814867934 -5.12173131209716 7.466768993029085
H 6.066871814251073 -4.939436767049223 6.689667481385827
H 5.545136361377831 -6.086592523897261 7.551851359306051
O -2.013353964018628 3.452571596764157 1.7689020059890708
H -2.4472324450193943 3.92104160869637 2.497772823448997
H -1.0966253893263302 3.35380084721739 2.0669204679618103
O -4.3190989928474295 4.138902659022185 -11.268873497550842
H -4.486161291397625 3.7849778073946854 -12.155324141807801
H -3.898355470040552 3.403471775240204 -10.798683910792784
O -1.132771974130335 8.120578014422067 -5.113210232132597
H -1.8336353927856859 7.910729131723671 -4.4778195871582085
H -1.104381608805077 7.345949457385721 -5.69467951771911
O -6.809146940435237 9.21505868747744 8.33689497491748
H -6.1463945267257145 8.739026901845731 8.859504134893161
H -6.89678731071051 8.684511535240475 7.530792730130095
O 3.444741484166425 7.4287786672968625 -9.56879266278
H 3.3920171172103823 7.122374166141163 -10.486563756081926
H 2.669885506491443 7.03082973943469 -9.144296715832688
O 3.693824622701042 -5.124600316544871 -8.49106463232747
H 4.228861253398495 -5.252339369337912 -7.693326645828487
H 3.76982220614884 -4.176155239378489 -8.674471958268803
C 4.455047510062702 1.6635998488941803 -10.547832847109179
O 4.28368814714046 2.4183832219011414 -9.634730286675184
O 4.626406872984944 0.9088164758872193 -11.460935407543175