146

C -5.3564454929577465 1.0091607042253532 -0.0734429577464788
C -4.079135492957747 0.16955070422535368 -0.19788295774647868
C -4.333545492957747 -1.2789292957746463 0.3017270422535212
C -3.1403854929577464 -2.1745492957746464 0.7330270422535212
C -2.905235492957746 0.902300704225353 0.41966704225352136
C -2.7423854929577463 1.056130704225354 1.8024770422535212
C -1.8861754929577463 1.3499307042253532 -0.4326129577464788
C -1.5304554929577463 1.5279207042253526 2.3254170422535214
H -3.5237954929577464 0.7301007042253529 2.484817042253521
C -0.6776454929577462 1.8010507042253527 0.08546704225352131
H -1.9759254929577463 1.2426607042253535 -1.5115229577464788
C -0.4680254929577463 1.8513207042253539 1.4698070422535212
H -1.3950654929577464 1.5446707042253527 3.404047042253521
H 0.1461845070422536 1.9972507042253538 -0.6030529577464789
C -1.8679654929577463 -2.0866092957746467 -0.08765295774647863
C -0.6628654929577462 -1.814079295774647 0.5787970422535212
C -1.8438954929577462 -2.213429295774647 -1.4808029577464787
C 0.5129345070422537 -1.5763292957746469 -0.13022295774647863
H -0.6401854929577462 -1.7032692957746463 1.6609470422535213
C -0.6547954929577462 -1.9962392957746466 -2.1933129577464787
H -2.7578654929577464 -2.4351492957746466 -2.026182957746479
C 0.5308845070422537 -1.645769295774647 -1.5261029577464789
H 1.4044045070422537 -1.2610992957746463 0.41551704225352126
H -0.6795654929577464 -2.0467992957746466 -3.2793129577464786
C 1.7843245070422535 -1.2521692957746469 -2.2771629577464787
H 1.4981245070422535 -0.9384492957746469 -3.290282957746479
H 2.241984507042254 -0.38631929577464685 -1.8135029577464787
C 0.9385645070422537 2.0647807042253534 1.9815670422535212
H 1.0508945070422537 1.5807407042253532 2.9609770422535213
H 1.6053245070422537 1.5496207042253536 1.3096170422535214
C 3.9676945070422533 -1.6881692957746468 -3.314052957746479
H 4.795084507042254 -2.398849295774647 -3.4044129577464783
H 3.548404507042253 -1.4816192957746468 -4.303802957746479
H 4.307714507042253 -0.7637192957746466 -2.851282957746479
C 2.344694507042253 -3.565079295774647 -3.101282957746479
H 1.6334345070422536 -4.047909295774646 -2.4251929577464786
H 1.8561845070422536 -3.293109295774647 -4.041792957746479
H 3.1808045070422537 -4.243519295774647 -3.298122957746479
C 3.5156645070422536 -2.648489295774647 -1.1110629577464786
H 3.9311845070422535 -1.748249295774647 -0.6771029577464787
H 2.767184507042254 -3.1044092957746465 -0.45972295774647876
H 4.319224507042254 -3.371819295774647 -1.2863129577464787
C 2.963994507042253 3.381090704225353 2.401027042253521
H 3.3337945070422537 4.369820704225353 2.6912870422535216
H 3.120994507042253 2.671350704225353 3.2183370422535216
H 3.4665445070422534 3.0664207042253535 1.4881370422535212
C 1.2973745070422538 4.282440704225354 0.8488370422535213
H 1.7592145070422538 3.7367207042253527 0.02653704225352116
H 0.23311450704225378 4.4484607042253534 0.6605570422535213
H 1.7921845070422535 5.251370704225354 0.9736770422535213
C 0.7724845070422537 4.194670704225353 3.2772470422535216
H -0.2956954929577462 4.278220704225354 3.057857042253521
H 0.9298945070422537 3.612620704225354 4.190337042253521
H 1.2046345070422537 5.193640704225353 3.3918370422535213
N 2.876084507042253 -2.324759295774647 -2.4576629577464786
N 1.4527845070422536 3.504690704225353 2.1388470422535213
C -3.593905492957746 -3.637819295774647 0.8297870422535213
H -2.8952554929577463 -1.8680692957746468 1.7595270422535212
H -5.022615492957747 -1.2402792957746467 1.1579970422535213
H -4.898275492957747 -1.7933092957746464 -0.48931295774647876
H -3.883675492957746 0.07871070422535364 -1.2758929577464788
H -3.8751654929577466 -4.038529295774646 -0.1505529577464788
H -4.4603554929577465 -3.7321892957746465 1.4932570422535212
H -2.7953554929577464 -4.271929295774647 1.2313670422535212
H -5.648775492957746 1.147700704225353 0.9733970422535213
H -6.189795492957747 0.5254307042253537 -0.5943629577464788
H -5.2178854929577465 2.002970704225354 -0.5139729577464787
C 3.6710445070422537 1.0263707042253536 -0.27764295774647874
O 2.7356545070422538 1.6631507042253526 -0.7327029577464788
O 3.650814507042253 0.3883007042253537 0.7790570422535212
O 4.756604507042254 0.8696707042253538 -0.8334829577464786
O -3.9740756676015803 -6.027106669948708 6.469914008302427
H -4.46662190109031 -6.294962624667951 7.260242264343871
H -3.048073565452296 -6.0420626801452055 6.754972544175514
O 4.153282496236278 -11.967792117838654 1.01039965926359
H 4.112255329874547 -11.306434821042432 1.7174291172741603
H 4.7525456826098385 -12.645255129261907 1.358091255237298
O -4.856849304518444 4.705494416462535 -3.136228755341917
H -5.231115650269463 5.50839834112683 -3.5289593845228504
H -5.370576624343119 3.9878615455053232 -3.5362903102149943
O -5.381797052081381 -9.846820123151977 2.6259638381357364
H -5.786797042029981 -10.585061699940699 3.1054862456853063
H -4.807288081851214 -10.277457091738425 1.9752310291336501
O 9.977956350026137 3.26652638984191 6.089446989837036
H 9.955676708450707 3.2227394218744223 5.121689956327341
H 9.108582814319156 3.622011321816742 6.327736861319636
O -3.6581184095353483 8.404494066580844 7.374290862616596
H -3.59503405112626 8.392903735828368 6.407412698183681
H -3.5602437498324067 9.340765597812354 7.604025742627094
O 4.5133406365182935 -3.077681812994824 7.073839235812255
H 5.44987428196772 -3.1975592451413637 6.855890872425049
H 4.225831583484421 -3.956842686218965 7.362589383371232
O 10.488605123402426 -3.6980365251790164 3.879474437598443
H 11.08061370836744 -4.272840978036371 3.3714458624148405
H 10.092542010364932 -3.119902806614976 3.210252980791831
O 5.75103049287094 -4.843645906351533 8.167506336338281
H 6.053353219668772 -4.74169377500035 9.08247851551887
H 6.523179089696284 -4.596198868650912 7.636923211603016
O -7.750543185808082 3.8606322602380794 -4.188941547040515
H -7.3825545701457616 4.495842869233544 -4.8214438931725585
H -8.574715168444957 3.5665896597559295 -4.605164367700428
O 7.604206552153977 3.876210709514805 0.37250455919471026
H 8.567647009127747 3.9708564897523013 0.3301723132182717
H 7.442444857329633 3.52368931525626 1.2604931655279037
O -6.675125295707844 -0.21488026872923038 -4.716014071627315
H -7.00100479804199 -0.10234223727814351 -3.8104175288249675
H -6.355162034183197 -1.129273848591731 -4.737689788011076
O 9.276936888191194 -4.785560866880984 -0.6844993868949851
H 9.199476375912571 -5.652612607265677 -1.1101618182104707
H 9.241646472614754 -4.158546431547234 -1.422448862639456
O -3.2593610207089103 -6.16712908980322 -10.63608913553731
H -4.034673412905315 -6.00615481418504 -10.077568469853494
H -2.5375380277753274 -6.296887889954956 -10.002767601910364
O 9.43259383693919 1.0887794465884946 2.9322000300883366
H 9.521489286451313 1.3191676765771156 1.995190841532136
H 10.21970106239143 0.5548968425004956 3.1176549437280032
O 2.419476809886849 5.381319193201059 -5.92415871432412
H 3.31162916018644 5.5326436962564545 -6.2707599773483
H 1.8501991932520025 5.449543696152759 -6.705331138757766
O 1.0078250331785479 9.181472594122042 -9.927622549491183
H 1.4938529381903811 9.812869196389475 -10.479059366447531
H 0.5217670967755793 8.638575917269357 -10.566350054004646
O 0.4161549140414742 -1.5573189328999866 -10.668663539357349
H 0.11793013671388808 -1.719885123097986 -11.576188510304384
H 1.3757435950823536 -1.4521855923452671 -10.752916065859699
O -8.432614795386748 -5.2704298622476315 -10.274179950158365
H -8.016913050512807 -6.093327361566898 -10.572507156130031
H -8.136871175558639 -4.611295830947208 -10.919966280466323
O 0.04317710552370846 4.54108931863499 10.970792644621966
H -0.809874348369497 4.758109992897822 10.565610462322208
H 0.46929563422728604 3.9605272496447697 10.322461997617449
O -2.2553894567874835 -10.568375484984044 -7.167621428396663
H -1.7028010140401264 -10.937076876431002 -6.462162249005587
H -2.6664757560289862 -11.346256320631976 -7.573665027542864
O -9.703318506640827 8.281795998764633 -3.2840648311296405
H -9.098283237377984 8.047588126579711 -4.003819200657641
H -9.229739261856672 8.011723634142667 -2.4829745983361247
O -1.2568551978317757 -10.909618781187886 1.3207412112746881
H -0.7978075830219806 -10.56719354456959 0.5390842522675134
H -1.289394797164841 -10.151814915771268 1.9237639474421355
O 2.4909802767690654 4.703579821781955 8.906410473090599
H 3.1357656557073867 4.932534064341416 9.59255850873698
H 2.1694739534339584 5.561779280175159 8.591625915068523
C 5.933316469472549 -3.5018902318692655 1.5820330677233554
O 4.781354337378965 -3.2991747051021205 1.8364105799565
O 7.085278601566133 -3.7046057586364105 1.3276555554902107