146

C -5.3564454929577465 1.0091607042253532 -0.0734429577464788
C -4.079135492957747 0.16955070422535368 -0.19788295774647868
C -4.333545492957747 -1.2789292957746463 0.3017270422535212
C -3.1403854929577464 -2.1745492957746464 0.7330270422535212
C -2.905235492957746 0.902300704225353 0.41966704225352136
C -2.7423854929577463 1.056130704225354 1.8024770422535212
C -1.8861754929577463 1.3499307042253532 -0.4326129577464788
C -1.5304554929577463 1.5279207042253526 2.3254170422535214
H -3.5237954929577464 0.7301007042253529 2.484817042253521
C -0.6776454929577462 1.8010507042253527 0.08546704225352131
H -1.9759254929577463 1.2426607042253535 -1.5115229577464788
C -0.4680254929577463 1.8513207042253539 1.4698070422535212
H -1.3950654929577464 1.5446707042253527 3.404047042253521
H 0.1461845070422536 1.9972507042253538 -0.6030529577464789
C -1.8679654929577463 -2.0866092957746467 -0.08765295774647863
C -0.6628654929577462 -1.814079295774647 0.5787970422535212
C -1.8438954929577462 -2.213429295774647 -1.4808029577464787
C 0.5129345070422537 -1.5763292957746469 -0.13022295774647863
H -0.6401854929577462 -1.7032692957746463 1.6609470422535213
C -0.6547954929577462 -1.9962392957746466 -2.1933129577464787
H -2.7578654929577464 -2.4351492957746466 -2.026182957746479
C 0.5308845070422537 -1.645769295774647 -1.5261029577464789
H 1.4044045070422537 -1.2610992957746463 0.41551704225352126
H -0.6795654929577464 -2.0467992957746466 -3.2793129577464786
C 1.7843245070422535 -1.2521692957746469 -2.2771629577464787
H 1.4981245070422535 -0.9384492957746469 -3.290282957746479
H 2.241984507042254 -0.38631929577464685 -1.8135029577464787
C 0.9385645070422537 2.0647807042253534 1.9815670422535212
H 1.0508945070422537 1.5807407042253532 2.9609770422535213
H 1.6053245070422537 1.5496207042253536 1.3096170422535214
C 3.9676945070422533 -1.6881692957746468 -3.314052957746479
H 4.795084507042254 -2.398849295774647 -3.4044129577464783
H 3.548404507042253 -1.4816192957746468 -4.303802957746479
H 4.307714507042253 -0.7637192957746466 -2.851282957746479
C 2.344694507042253 -3.565079295774647 -3.101282957746479
H 1.6334345070422536 -4.047909295774646 -2.4251929577464786
H 1.8561845070422536 -3.293109295774647 -4.041792957746479
H 3.1808045070422537 -4.243519295774647 -3.298122957746479
C 3.5156645070422536 -2.648489295774647 -1.1110629577464786
H 3.9311845070422535 -1.748249295774647 -0.6771029577464787
H 2.767184507042254 -3.1044092957746465 -0.45972295774647876
H 4.319224507042254 -3.371819295774647 -1.2863129577464787
C 2.963994507042253 3.381090704225353 2.401027042253521
H 3.3337945070422537 4.369820704225353 2.6912870422535216
H 3.120994507042253 2.671350704225353 3.2183370422535216
H 3.4665445070422534 3.0664207042253535 1.4881370422535212
C 1.2973745070422538 4.282440704225354 0.8488370422535213
H 1.7592145070422538 3.7367207042253527 0.02653704225352116
H 0.23311450704225378 4.4484607042253534 0.6605570422535213
H 1.7921845070422535 5.251370704225354 0.9736770422535213
C 0.7724845070422537 4.194670704225353 3.2772470422535216
H -0.2956954929577462 4.278220704225354 3.057857042253521
H 0.9298945070422537 3.612620704225354 4.190337042253521
H 1.2046345070422537 5.193640704225353 3.3918370422535213
N 2.876084507042253 -2.324759295774647 -2.4576629577464786
N 1.4527845070422536 3.504690704225353 2.1388470422535213
C -3.593905492957746 -3.637819295774647 0.8297870422535213
H -2.8952554929577463 -1.8680692957746468 1.7595270422535212
H -5.022615492957747 -1.2402792957746467 1.1579970422535213
H -4.898275492957747 -1.7933092957746464 -0.48931295774647876
H -3.883675492957746 0.07871070422535364 -1.2758929577464788
H -3.8751654929577466 -4.038529295774646 -0.1505529577464788
H -4.4603554929577465 -3.7321892957746465 1.4932570422535212
H -2.7953554929577464 -4.271929295774647 1.2313670422535212
H -5.648775492957746 1.147700704225353 0.9733970422535213
H -6.189795492957747 0.5254307042253537 -0.5943629577464788
H -5.2178854929577465 2.002970704225354 -0.5139729577464787
C 3.6710445070422537 1.0263707042253536 -0.27764295774647874
O 2.7356545070422538 1.6631507042253526 -0.7327029577464788
O 3.650814507042253 0.3883007042253537 0.7790570422535212
O 4.756604507042254 0.8696707042253538 -0.8334829577464786
O -5.984692462461816 0.7120411449477517 6.540690996828739
H -5.883618571576197 0.15885393430222416 5.751555181230777
H -5.381278643520047 1.4541142668814064 6.385187977199706
O 1.2822322491057638 7.199745970431965 7.169199628776845
H 1.633573909359187 7.474898549522452 8.02932604558441
H 0.5362926411756139 6.623737148912692 7.394476975958032
O 9.845843871851025 5.874298775229422 0.6785247171067783
H 9.998274563394695 6.43147803807508 1.4565244023446882
H 9.09377876217281 5.318503111621974 0.9323971169848457
O 5.754517557371696 -7.364902333862258 -8.120244688237982
H 5.523784225396091 -7.991611428955559 -7.418129885272845
H 6.1147465861784855 -7.924595252183375 -8.824475352357421
O 4.205929846799014 -0.369265768263642 13.249277463891886
H 4.891405568658989 0.17392598748846183 13.666450219622046
H 3.8579256459396793 -0.9064063167369516 13.976831621099478
O 0.03721138216763098 -11.50688329914401 2.6332282354897307
H 0.014697804657931357 -11.209167442715902 3.5550881839412263
H 0.9809162967314471 -11.627242661461718 2.4491179358577533
O 5.2799095998554275 8.433023078820101 -3.7127140267596657
H 5.724103441214583 8.00034529900109 -4.457327434542181
H 4.4410507000165556 7.954946047138608 -3.6307381629964173
O -1.1810190643442917 7.951805131282555 -1.8884924264685456
H -1.4911878198486823 8.869404336786088 -1.9163204351674303
H -0.34395899233804517 8.00230465011495 -1.4029595452436043
O 10.590874576352963 0.3673221459340912 -2.0817323441694566
H 9.949381228250786 1.079002522806063 -2.2265242031119654
H 10.073766870409676 -0.4427183764653311 -2.205812627957582
O 5.563516407735047 0.7650678514181601 9.913052155833695
H 5.845991465652367 0.5764386396764127 9.005531236497784
H 5.98049364352014 0.06552653237487638 10.438155833299588
O 0.787400451200492 9.94726755098682 5.636853814428137
H 0.642353587812583 9.861198074387318 6.591065955159546
H 0.13883186874953468 9.342629304029906 5.246042698319058
O -1.6097167041091418 -2.8352311264122148 -12.311539315425938
H -1.946600276777124 -3.319465456710271 -13.080300610450116
H -2.3098042864805555 -2.9322087040120137 -11.64864062727501
O 1.2940327559208944 2.0317693015052276 -5.287915190822998
H 1.6117922592884217 1.6714428868982787 -4.4463920896213
H 2.105578693064811 2.244929855382941 -5.772598298095934
O 5.83901151580398 -0.8167696506851194 -13.196750083337566
H 5.569342083320322 -1.2845632871546386 -14.001371029971796
H 5.1306002546119895 -0.17153291839315798 -13.052580084317091
O -0.7927999512412898 -6.311909886616104 4.401070314104299
H -1.1020060241048677 -6.688872849072698 3.5636588941079914
H 0.1701621004268281 -6.4124500283777 4.361602463368705
O -7.533514136623151 -5.941352594219184 -7.430777983658969
H -7.8481220502013045 -6.273188101099489 -8.28510486137469
H -7.244236766773379 -6.738640132646106 -6.962148995372995
O -6.553212207138011 -7.503762777045221 -9.352989425746081
H -6.640315041076021 -7.805866240789738 -8.436412123815941
H -5.934812100522537 -8.135449214754178 -9.749871646124543
O 2.9919736505713783 -1.7900841813289392 -6.231032345936193
H 3.020707629374625 -1.664362863841993 -7.1914155328420675
H 2.7741641181915853 -2.7282247685177192 -6.124199810753383
O 1.6257629911556886 -6.055860292157053 -8.489024028388235
H 1.554796675372192 -5.167091398709081 -8.868525007258361
H 2.3300965046709607 -5.972865507986075 -7.828730069730694
O 3.3974725113488313 10.80155831097451 1.7255449197097898
H 3.7703761483282054 10.635997366537485 0.8466252373128853
H 2.4923598462792222 11.096181363767379 1.5440779403620288
O 7.100884562525065 5.509365996823007 6.176583731137515
H 6.391574313891961 5.761023329342003 6.786923730706171
H 7.3458581520132125 6.342288618592127 5.746246896903506
O 10.094579853698102 7.915502709347589 0.6423084386784703
H 9.442385861046512 7.941548964678274 -0.07388423472193972
H 9.753887586296813 8.548327434846371 1.2922496591210288
O -0.11801137730040878 9.258510322310974 -7.5594050574857405
H 0.0845938540023039 9.337914843360979 -6.615152231604029
H -0.4035571781368166 10.149019319837802 -7.813214563313349
O -2.276807947609117 -2.607647396171261 -8.870048529893081
H -1.9887827543712708 -2.722115884915254 -9.788147549631676
H -2.423899339288985 -3.5125825050284485 -8.556331275743249
C -0.5009086996422905 -8.64057611017958 6.480718520795519
O -0.3342667240840036 -7.559097420621182 5.995483986458686
O -0.6675506752005773 -9.722054799737977 6.965953055132352