146

C -5.3564454929577465 1.0091607042253532 -0.0734429577464788
C -4.079135492957747 0.16955070422535368 -0.19788295774647868
C -4.333545492957747 -1.2789292957746463 0.3017270422535212
C -3.1403854929577464 -2.1745492957746464 0.7330270422535212
C -2.905235492957746 0.902300704225353 0.41966704225352136
C -2.7423854929577463 1.056130704225354 1.8024770422535212
C -1.8861754929577463 1.3499307042253532 -0.4326129577464788
C -1.5304554929577463 1.5279207042253526 2.3254170422535214
H -3.5237954929577464 0.7301007042253529 2.484817042253521
C -0.6776454929577462 1.8010507042253527 0.08546704225352131
H -1.9759254929577463 1.2426607042253535 -1.5115229577464788
C -0.4680254929577463 1.8513207042253539 1.4698070422535212
H -1.3950654929577464 1.5446707042253527 3.404047042253521
H 0.1461845070422536 1.9972507042253538 -0.6030529577464789
C -1.8679654929577463 -2.0866092957746467 -0.08765295774647863
C -0.6628654929577462 -1.814079295774647 0.5787970422535212
C -1.8438954929577462 -2.213429295774647 -1.4808029577464787
C 0.5129345070422537 -1.5763292957746469 -0.13022295774647863
H -0.6401854929577462 -1.7032692957746463 1.6609470422535213
C -0.6547954929577462 -1.9962392957746466 -2.1933129577464787
H -2.7578654929577464 -2.4351492957746466 -2.026182957746479
C 0.5308845070422537 -1.645769295774647 -1.5261029577464789
H 1.4044045070422537 -1.2610992957746463 0.41551704225352126
H -0.6795654929577464 -2.0467992957746466 -3.2793129577464786
C 1.7843245070422535 -1.2521692957746469 -2.2771629577464787
H 1.4981245070422535 -0.9384492957746469 -3.290282957746479
H 2.241984507042254 -0.38631929577464685 -1.8135029577464787
C 0.9385645070422537 2.0647807042253534 1.9815670422535212
H 1.0508945070422537 1.5807407042253532 2.9609770422535213
H 1.6053245070422537 1.5496207042253536 1.3096170422535214
C 3.9676945070422533 -1.6881692957746468 -3.314052957746479
H 4.795084507042254 -2.398849295774647 -3.4044129577464783
H 3.548404507042253 -1.4816192957746468 -4.303802957746479
H 4.307714507042253 -0.7637192957746466 -2.851282957746479
C 2.344694507042253 -3.565079295774647 -3.101282957746479
H 1.6334345070422536 -4.047909295774646 -2.4251929577464786
H 1.8561845070422536 -3.293109295774647 -4.041792957746479
H 3.1808045070422537 -4.243519295774647 -3.298122957746479
C 3.5156645070422536 -2.648489295774647 -1.1110629577464786
H 3.9311845070422535 -1.748249295774647 -0.6771029577464787
H 2.767184507042254 -3.1044092957746465 -0.45972295774647876
H 4.319224507042254 -3.371819295774647 -1.2863129577464787
C 2.963994507042253 3.381090704225353 2.401027042253521
H 3.3337945070422537 4.369820704225353 2.6912870422535216
H 3.120994507042253 2.671350704225353 3.2183370422535216
H 3.4665445070422534 3.0664207042253535 1.4881370422535212
C 1.2973745070422538 4.282440704225354 0.8488370422535213
H 1.7592145070422538 3.7367207042253527 0.02653704225352116
H 0.23311450704225378 4.4484607042253534 0.6605570422535213
H 1.7921845070422535 5.251370704225354 0.9736770422535213
C 0.7724845070422537 4.194670704225353 3.2772470422535216
H -0.2956954929577462 4.278220704225354 3.057857042253521
H 0.9298945070422537 3.612620704225354 4.190337042253521
H 1.2046345070422537 5.193640704225353 3.3918370422535213
N 2.876084507042253 -2.324759295774647 -2.4576629577464786
N 1.4527845070422536 3.504690704225353 2.1388470422535213
C -3.593905492957746 -3.637819295774647 0.8297870422535213
H -2.8952554929577463 -1.8680692957746468 1.7595270422535212
H -5.022615492957747 -1.2402792957746467 1.1579970422535213
H -4.898275492957747 -1.7933092957746464 -0.48931295774647876
H -3.883675492957746 0.07871070422535364 -1.2758929577464788
H -3.8751654929577466 -4.038529295774646 -0.1505529577464788
H -4.4603554929577465 -3.7321892957746465 1.4932570422535212
H -2.7953554929577464 -4.271929295774647 1.2313670422535212
H -5.648775492957746 1.147700704225353 0.9733970422535213
H -6.189795492957747 0.5254307042253537 -0.5943629577464788
H -5.2178854929577465 2.002970704225354 -0.5139729577464787
C 3.6710445070422537 1.0263707042253536 -0.27764295774647874
O 2.7356545070422538 1.6631507042253526 -0.7327029577464788
O 3.650814507042253 0.3883007042253537 0.7790570422535212
O 4.756604507042254 0.8696707042253538 -0.8334829577464786
O 3.6997515913872605 10.414259709181435 -4.907270956232536
H 3.7290671185779423 10.286534306582688 -3.947169827029721
H 4.524740951079972 10.014982865190765 -5.22180633190062
O -7.657299283476064 -1.6490795059253671 -7.121975112559095
H -8.152893523633988 -1.5452247070693725 -7.94815178057682
H -6.733675794309191 -1.7084122853251977 -7.408961550998093
O -6.510243471247147 -9.047654626812145 -8.746852307573079
H -6.670800353794992 -9.322028647348883 -9.66222531417805
H -7.140594700776768 -8.325512446551606 -8.604972276493823
O 1.22559347377498 8.216067756290009 -3.483347744606716
H 1.2433979200231486 8.285498642963208 -4.44969639316456
H 2.1335253560986915 8.424952521753077 -3.216910517257458
O 0.3703296330604359 3.3827281808964327 5.906862645496307
H -0.39841541323458995 2.8708739410661126 5.61359886003246
H 0.450504401320744 3.1662214215753464 6.847957100905904
O -3.860649178551124 -1.409456565771022 -11.3404663867876
H -3.71750334880649 -1.4440749104467563 -12.298212803402476
H -3.0571711802612054 -0.9891931224637878 -10.998759364934712
O -4.938206318868124 4.474374399172522 10.68777610692389
H -3.998379345914501 4.710304728274596 10.693207277941028
H -5.025500169601095 3.8782666348302777 9.928831272818604
O -7.433333625805422 4.14532405048374 -6.960097917727847
H -7.423303942603488 3.9912591078748276 -7.916722585930474
H -8.25799942009914 3.730891847556506 -6.66491285509969
O 0.9656238793209528 10.431584949173153 8.287340989770364
H 0.7914209022540222 10.585575480940678 7.346645717215551
H 0.6243710206583559 11.22759346799413 8.721942955618475
O -2.054663953700288 -9.49937327181579 -2.2366649848966893
H -2.1488843059133123 -10.451733707824225 -2.388650122507837
H -1.1234581984623178 -9.392577464143 -1.990875560439092
O 0.14763414821463483 7.268016056360494 1.0565044975369906
H -0.52500359149058 7.002912909268505 1.7016759084241941
H 0.15871503225975703 6.539826576347262 0.4173024641337495
O 9.244881970754657 -1.537150594730034 7.939342220456786
H 10.174195935681444 -1.2639500349429944 7.912802333039905
H 8.930076644820767 -1.2132055332536642 8.796616475411831
O -5.34594983190706 -4.849953060812824 8.973165442812592
H -5.60244173975418 -5.4528810655719075 8.259262732924068
H -5.92917115111389 -4.0852621783822 8.854579223334444
O -5.560484390465607 -10.28625987448099 5.376282126977827
H -5.903622352016881 -10.237734283948065 6.28119591475314
H -5.7921689638522045 -11.18118722958732 5.085783879415021
O -0.22848754434172536 -1.2032582487908312 5.260618868840069
H -0.32873913558694134 -2.1386718914950453 5.028415741394213
H -1.136322169994885 -0.8644615221203491 5.264493757555092
O -9.004513810296402 1.6183634276980599 -4.547543982102307
H -8.169278982383085 1.7259130401802611 -5.026901072375877
H -8.88427551366353 2.1491468870104726 -3.7458123464266437
O 0.755852526637779 -2.293791616192279 -7.731025264566899
H 0.6939325877735387 -2.3846398369444946 -8.693771274092363
H 0.21083221431692495 -1.5172838127806978 -7.53366661971292
O 5.233977336053868 9.90820337983633 -8.432857200535546
H 5.144594489668926 9.95795315069667 -9.396445818137202
H 4.863863595397827 9.041384738393548 -8.207905636582584
O 6.829909960138123 -6.573537739933394 6.579241268076124
H 6.698054515138345 -6.710083735818023 5.629011459276281
H 5.973697773610178 -6.242107842776738 6.889107141014342
O 6.805885387253085 3.1387480699279378 7.8703517627673065
H 7.544858095362084 2.9662331452370756 7.267752978891205
H 6.44166545815456 2.2593352954342425 8.05184269809127
O -3.9944034696705177 -2.5839660128333275 8.78096072939648
H -4.103071527102863 -1.6500938268560743 8.546351798509464
H -3.0727075641532138 -2.646085348612759 9.073500966244268
O 9.347597421710198 0.06847004887337915 -1.0498174167619245
H 9.411691781394182 -0.13295436801341554 -0.1041496768878627
H 8.602487693289966 0.6852471399792122 -1.107778238016937
O -6.628269509618228 -2.1309303681038 1.6018250972475152
H -7.417027734497383 -1.7165350155203236 1.22089949907551
H -6.3000149980866675 -1.4731419494685762 2.233113712912765
O -4.216431895552446 -2.4859267933240488 4.714125090362899
H -4.419532289318573 -2.1165029328410125 5.586617840050742
H -4.961556544233829 -3.0778231754875076 4.531341406711287
C 3.661433627143813 -8.042725287082046 2.0729831024759453
O 3.1484692058050276 -8.691578102732395 2.938243631659601
O 4.1743980484825975 -7.393872471431696 1.20772257329229