146

C -5.3564454929577465 1.0091607042253532 -0.0734429577464788
C -4.079135492957747 0.16955070422535368 -0.19788295774647868
C -4.333545492957747 -1.2789292957746463 0.3017270422535212
C -3.1403854929577464 -2.1745492957746464 0.7330270422535212
C -2.905235492957746 0.902300704225353 0.41966704225352136
C -2.7423854929577463 1.056130704225354 1.8024770422535212
C -1.8861754929577463 1.3499307042253532 -0.4326129577464788
C -1.5304554929577463 1.5279207042253526 2.3254170422535214
H -3.5237954929577464 0.7301007042253529 2.484817042253521
C -0.6776454929577462 1.8010507042253527 0.08546704225352131
H -1.9759254929577463 1.2426607042253535 -1.5115229577464788
C -0.4680254929577463 1.8513207042253539 1.4698070422535212
H -1.3950654929577464 1.5446707042253527 3.404047042253521
H 0.1461845070422536 1.9972507042253538 -0.6030529577464789
C -1.8679654929577463 -2.0866092957746467 -0.08765295774647863
C -0.6628654929577462 -1.814079295774647 0.5787970422535212
C -1.8438954929577462 -2.213429295774647 -1.4808029577464787
C 0.5129345070422537 -1.5763292957746469 -0.13022295774647863
H -0.6401854929577462 -1.7032692957746463 1.6609470422535213
C -0.6547954929577462 -1.9962392957746466 -2.1933129577464787
H -2.7578654929577464 -2.4351492957746466 -2.026182957746479
C 0.5308845070422537 -1.645769295774647 -1.5261029577464789
H 1.4044045070422537 -1.2610992957746463 0.41551704225352126
H -0.6795654929577464 -2.0467992957746466 -3.2793129577464786
C 1.7843245070422535 -1.2521692957746469 -2.2771629577464787
H 1.4981245070422535 -0.9384492957746469 -3.290282957746479
H 2.241984507042254 -0.38631929577464685 -1.8135029577464787
C 0.9385645070422537 2.0647807042253534 1.9815670422535212
H 1.0508945070422537 1.5807407042253532 2.9609770422535213
H 1.6053245070422537 1.5496207042253536 1.3096170422535214
C 3.9676945070422533 -1.6881692957746468 -3.314052957746479
H 4.795084507042254 -2.398849295774647 -3.4044129577464783
H 3.548404507042253 -1.4816192957746468 -4.303802957746479
H 4.307714507042253 -0.7637192957746466 -2.851282957746479
C 2.344694507042253 -3.565079295774647 -3.101282957746479
H 1.6334345070422536 -4.047909295774646 -2.4251929577464786
H 1.8561845070422536 -3.293109295774647 -4.041792957746479
H 3.1808045070422537 -4.243519295774647 -3.298122957746479
C 3.5156645070422536 -2.648489295774647 -1.1110629577464786
H 3.9311845070422535 -1.748249295774647 -0.6771029577464787
H 2.767184507042254 -3.1044092957746465 -0.45972295774647876
H 4.319224507042254 -3.371819295774647 -1.2863129577464787
C 2.963994507042253 3.381090704225353 2.401027042253521
H 3.3337945070422537 4.369820704225353 2.6912870422535216
H 3.120994507042253 2.671350704225353 3.2183370422535216
H 3.4665445070422534 3.0664207042253535 1.4881370422535212
C 1.2973745070422538 4.282440704225354 0.8488370422535213
H 1.7592145070422538 3.7367207042253527 0.02653704225352116
H 0.23311450704225378 4.4484607042253534 0.6605570422535213
H 1.7921845070422535 5.251370704225354 0.9736770422535213
C 0.7724845070422537 4.194670704225353 3.2772470422535216
H -0.2956954929577462 4.278220704225354 3.057857042253521
H 0.9298945070422537 3.612620704225354 4.190337042253521
H 1.2046345070422537 5.193640704225353 3.3918370422535213
N 2.876084507042253 -2.324759295774647 -2.4576629577464786
N 1.4527845070422536 3.504690704225353 2.1388470422535213
C -3.593905492957746 -3.637819295774647 0.8297870422535213
H -2.8952554929577463 -1.8680692957746468 1.7595270422535212
H -5.022615492957747 -1.2402792957746467 1.1579970422535213
H -4.898275492957747 -1.7933092957746464 -0.48931295774647876
H -3.883675492957746 0.07871070422535364 -1.2758929577464788
H -3.8751654929577466 -4.038529295774646 -0.1505529577464788
H -4.4603554929577465 -3.7321892957746465 1.4932570422535212
H -2.7953554929577464 -4.271929295774647 1.2313670422535212
H -5.648775492957746 1.147700704225353 0.9733970422535213
H -6.189795492957747 0.5254307042253537 -0.5943629577464788
H -5.2178854929577465 2.002970704225354 -0.5139729577464787
C 3.6710445070422537 1.0263707042253536 -0.27764295774647874
O 2.7356545070422538 1.6631507042253526 -0.7327029577464788
O 3.650814507042253 0.3883007042253537 0.7790570422535212
O 4.756604507042254 0.8696707042253538 -0.8334829577464786
O 9.017131427933082 5.121580558740659 0.12806734989777313
H 9.455110728647993 5.897427092439536 0.5091233106079018
H 9.545757780353549 4.9168085525315846 -0.6577981279670724
O 7.3715719961651205 -4.206998207657411 -5.944599407735939
H 6.774961040878159 -4.532371423819303 -5.253835341548324
H 7.571322729832426 -3.2986723484231835 -5.672559480251437
O -9.267778897584886 -4.571880190276127 1.1525078290268924
H -9.378919825301008 -3.793837682825319 0.5857054757448501
H -8.677935866453819 -5.149078884047378 0.6446802885814416
O -1.609659414460181 6.747173041183859 10.872240913851943
H -1.3980510710181886 7.327343509699913 11.618961405969042
H -1.9066544534756187 5.925419380108596 11.291140438332
O 4.207749573222065 5.789485017514757 -9.224623471096013
H 4.630407895015424 5.212453767374001 -8.570893988603586
H 4.72342603353993 6.608757154444625 -9.18181111044626
O -2.805972047228972 0.6491789921164861 10.167098085630366
H -3.056584989624139 0.41181355600522995 11.072536189392158
H -2.2276189865001053 1.418646128186006 10.278408498236383
O 0.539812166784292 -0.5680929686969004 5.091904246088556
H 0.5316788734506206 -0.6243441905962268 4.124569243892118
H -0.06234989811692937 -1.2735405121577161 5.37245113222169
O -4.930236748727307 1.0805423129461234 -7.949334904745321
H -5.049886289548065 0.3537771822028608 -8.578988610378117
H -5.71385190900504 1.0297452648719538 -7.38159474869693
O 12.50902062185532 6.554588846324013 5.260798149116796
H 13.309627817456377 6.427883745094742 5.7917795918945005
H 12.601636050302925 7.452419795258201 4.908258911797884
O 5.736941965843601 1.0676299737595063 -3.3104427653578283
H 6.11418748393401 1.7525794104523287 -3.882716690287914
H 5.301645749504926 0.46056881853862786 -3.9276590177063273
O 1.898542815338367 -4.821845699514636 -0.31265198096553515
H 1.5715085274700096 -5.335520864964176 -1.0664117277408753
H 2.6378731647369715 -5.348531464559136 0.026397696305549112
O 6.876070239106235 -7.233830900685598 -2.8146576837976975
H 7.741617002922487 -7.4819230090121405 -3.1727728361346337
H 6.922312790378086 -7.501117532672279 -1.8843988880246691
O -11.054426267985693 -3.410718960980391 1.6093671994031735
H -11.820148445301859 -3.4458730228829495 2.202158137253898
H -10.988167702557611 -2.4746375106801657 1.367865097525697
O 1.046320212926152 11.503315662505482 -6.2557794106120665
H 1.9467883051251538 11.823561256377731 -6.095881532461972
H 1.1680359008120922 10.752802577970392 -6.8565100870088
O -5.748060260874437 -9.767201615041268 -10.575669620796694
H -5.419748259497712 -10.640559530333256 -10.837250465754508
H -6.031555344122973 -9.889194604652422 -9.657132635934548
O 3.3129303009359745 0.312643097421963 5.237154814976142
H 4.058481311227856 -0.08842867970601254 5.708602031050396
H 2.5334045579538396 -0.10351707989454889 5.634788147512587
O 5.174953406370186 11.661379965453765 4.44780619590099
H 5.065317814439144 12.585430494141313 4.718135651037107
H 4.58155496341225 11.17289652140502 5.037911404389589
O 4.250120778697913 -4.885550707567649 -8.101287523734907
H 4.72965813414495 -5.7098287678935655 -7.929307987463271
H 4.8476167959210095 -4.195106553184668 -7.7768690850158535
O -10.167662921164585 -8.451803710641082 1.9230878027989744
H -9.973318944211403 -8.47943258846606 0.9741755725942232
H -9.593170812687283 -7.747594444388569 2.2592575083368156
O -2.65217098098572 -7.626219269287664 1.7653239944367716
H -2.2608885622248964 -8.038977783151308 2.549859420597857
H -2.013830307525755 -6.94012631811087 1.5188293874933447
O 9.193424875538264 -7.511535426949813 1.4129521921529542
H 9.457497505113684 -7.593342716840737 0.4842215689204543
H 9.505309263019514 -6.630326542363212 1.668218670310753
O -0.872673562572203 1.724367241655782 -4.571560107495948
H -0.7545315728837405 2.0119280092973444 -3.653780922677591
H -1.0930745156098784 2.54008410517073 -5.045892652001825
O 9.05586933097892 0.41708281683212167 1.9057252921766135
H 9.056145337573916 0.3679745395056786 2.8734833496570924
H 8.995782839748975 -0.5082406715801042 1.6244282966997667
O -4.284732256307969 4.074724595947488 -2.789568749580914
H -4.295939685552506 3.2368485208420523 -2.3029421646149446
H -5.189368142004666 4.410019441220103 -2.699162857387073
C 6.157000915167475 -4.322062785411739 6.284852023934092
O 5.071585827204118 -3.8191029406636146 6.24333409175484
O 7.242416003130833 -4.825022630159864 6.326369956113343