146

C -5.3564454929577465 1.0091607042253532 -0.0734429577464788
C -4.079135492957747 0.16955070422535368 -0.19788295774647868
C -4.333545492957747 -1.2789292957746463 0.3017270422535212
C -3.1403854929577464 -2.1745492957746464 0.7330270422535212
C -2.905235492957746 0.902300704225353 0.41966704225352136
C -2.7423854929577463 1.056130704225354 1.8024770422535212
C -1.8861754929577463 1.3499307042253532 -0.4326129577464788
C -1.5304554929577463 1.5279207042253526 2.3254170422535214
H -3.5237954929577464 0.7301007042253529 2.484817042253521
C -0.6776454929577462 1.8010507042253527 0.08546704225352131
H -1.9759254929577463 1.2426607042253535 -1.5115229577464788
C -0.4680254929577463 1.8513207042253539 1.4698070422535212
H -1.3950654929577464 1.5446707042253527 3.404047042253521
H 0.1461845070422536 1.9972507042253538 -0.6030529577464789
C -1.8679654929577463 -2.0866092957746467 -0.08765295774647863
C -0.6628654929577462 -1.814079295774647 0.5787970422535212
C -1.8438954929577462 -2.213429295774647 -1.4808029577464787
C 0.5129345070422537 -1.5763292957746469 -0.13022295774647863
H -0.6401854929577462 -1.7032692957746463 1.6609470422535213
C -0.6547954929577462 -1.9962392957746466 -2.1933129577464787
H -2.7578654929577464 -2.4351492957746466 -2.026182957746479
C 0.5308845070422537 -1.645769295774647 -1.5261029577464789
H 1.4044045070422537 -1.2610992957746463 0.41551704225352126
H -0.6795654929577464 -2.0467992957746466 -3.2793129577464786
C 1.7843245070422535 -1.2521692957746469 -2.2771629577464787
H 1.4981245070422535 -0.9384492957746469 -3.290282957746479
H 2.241984507042254 -0.38631929577464685 -1.8135029577464787
C 0.9385645070422537 2.0647807042253534 1.9815670422535212
H 1.0508945070422537 1.5807407042253532 2.9609770422535213
H 1.6053245070422537 1.5496207042253536 1.3096170422535214
C 3.9676945070422533 -1.6881692957746468 -3.314052957746479
H 4.795084507042254 -2.398849295774647 -3.4044129577464783
H 3.548404507042253 -1.4816192957746468 -4.303802957746479
H 4.307714507042253 -0.7637192957746466 -2.851282957746479
C 2.344694507042253 -3.565079295774647 -3.101282957746479
H 1.6334345070422536 -4.047909295774646 -2.4251929577464786
H 1.8561845070422536 -3.293109295774647 -4.041792957746479
H 3.1808045070422537 -4.243519295774647 -3.298122957746479
C 3.5156645070422536 -2.648489295774647 -1.1110629577464786
H 3.9311845070422535 -1.748249295774647 -0.6771029577464787
H 2.767184507042254 -3.1044092957746465 -0.45972295774647876
H 4.319224507042254 -3.371819295774647 -1.2863129577464787
C 2.963994507042253 3.381090704225353 2.401027042253521
H 3.3337945070422537 4.369820704225353 2.6912870422535216
H 3.120994507042253 2.671350704225353 3.2183370422535216
H 3.4665445070422534 3.0664207042253535 1.4881370422535212
C 1.2973745070422538 4.282440704225354 0.8488370422535213
H 1.7592145070422538 3.7367207042253527 0.02653704225352116
H 0.23311450704225378 4.4484607042253534 0.6605570422535213
H 1.7921845070422535 5.251370704225354 0.9736770422535213
C 0.7724845070422537 4.194670704225353 3.2772470422535216
H -0.2956954929577462 4.278220704225354 3.057857042253521
H 0.9298945070422537 3.612620704225354 4.190337042253521
H 1.2046345070422537 5.193640704225353 3.3918370422535213
N 2.876084507042253 -2.324759295774647 -2.4576629577464786
N 1.4527845070422536 3.504690704225353 2.1388470422535213
C -3.593905492957746 -3.637819295774647 0.8297870422535213
H -2.8952554929577463 -1.8680692957746468 1.7595270422535212
H -5.022615492957747 -1.2402792957746467 1.1579970422535213
H -4.898275492957747 -1.7933092957746464 -0.48931295774647876
H -3.883675492957746 0.07871070422535364 -1.2758929577464788
H -3.8751654929577466 -4.038529295774646 -0.1505529577464788
H -4.4603554929577465 -3.7321892957746465 1.4932570422535212
H -2.7953554929577464 -4.271929295774647 1.2313670422535212
H -5.648775492957746 1.147700704225353 0.9733970422535213
H -6.189795492957747 0.5254307042253537 -0.5943629577464788
H -5.2178854929577465 2.002970704225354 -0.5139729577464787
C 3.6710445070422537 1.0263707042253536 -0.27764295774647874
O 2.7356545070422538 1.6631507042253526 -0.7327029577464788
O 3.650814507042253 0.3883007042253537 0.7790570422535212
O 4.756604507042254 0.8696707042253538 -0.8334829577464786
O -7.856992478747679 -12.15919956855964 -7.083077418194829
H -8.74216698845627 -12.553303406671457 -7.072325253404015
H -7.331677668116923 -12.748252121309687 -6.520917846426615
O -3.206727262830629 -1.4019248335843837 4.6471510727712815
H -2.763979602018071 -2.1903984320549985 4.298939570577844
H -2.71595113893339 -1.1963396287203107 5.456987762513971
O 3.005496657944203 -8.224216343746683 4.952445356465066
H 3.0361002867859854 -8.18379979202395 5.920121581836218
H 3.558114484755658 -7.480223036853767 4.669515257167149
O 0.3097215932921258 -2.0243672893954505 -5.297486657322822
H 0.8275858275346932 -2.445911080454838 -5.999686645938344
H 0.7313935317902793 -1.1595082557662513 -5.182710472801917
O 3.014964458753625 5.765589932426023 -2.7004484310841237
H 2.9104710315405944 5.3848644897953175 -1.8155209663148753
H 3.873827116787539 5.430928675629666 -2.9993108110090656
O -7.725092818714284 6.67295970755094 -2.541267950505279
H -8.598173239890215 6.621706252624271 -2.9584861409252783
H -7.161512587955312 6.127141727198491 -3.109969981556371
O -1.21926427170825 -9.872403976817903 -0.2075460290739155
H -1.8584920695416873 -9.227691689506878 -0.546221752985744
H -1.7189000771982457 -10.701984742250424 -0.17405334633936587
O -2.3521502364388214 4.229559839542198 -2.4823578121947625
H -3.0452728003345735 4.690733967881134 -2.9782074785951775
H -2.4687450684477845 4.541082162482414 -1.5722361545254526
O 8.423997159308641 -0.162679580985583 3.4370716597287494
H 7.8704596898418835 -0.9559911307702966 3.3803229877221317
H 8.619376677729885 -0.08075208546344292 4.382627937038013
O -6.781810751948216 -0.6119553548742354 -11.174952908295014
H -7.030002853257722 -0.20692748601738842 -12.019535919725419
H -6.799826649239113 -1.563450752445394 -11.357419015136
O -8.435942477265687 -9.526842055815184 2.301004934856288
H -8.453120570980603 -10.307342945266612 2.8750176799777307
H -8.577447530580539 -9.886610941932863 1.4124642139166088
O -8.005364530688507 4.6649301245162755 2.1914917416647643
H -7.4796484075107745 5.184663302594354 2.817963878583748
H -7.415351525377924 4.547369644962464 1.4318693805461291
O -10.695246485903485 -7.885743741712126 -4.576795211725663
H -11.120304820708414 -8.727922576865327 -4.355373490720563
H -9.960648402101924 -7.821907179414167 -3.948104116760058
O 4.5134174123584145 4.378995417459995 -8.577315636985029
H 4.679480471473426 4.257804348101782 -7.630371529867202
H 3.8424204665435746 5.077329876535702 -8.609781407799796
O 8.58949467756657 -0.12812838202074517 -5.970552215031627
H 8.68297792807418 0.8268500117286127 -5.835479988995222
H 8.990332894638644 -0.5168739454275406 -5.178613104388633
O -2.958231199809893 -4.5779354209824215 -8.146282127821403
H -2.0384218530474594 -4.672958520915115 -7.856646610338399
H -3.2379195076099796 -5.485484389491969 -8.338873053197394
O -9.529564391060061 -1.1651951096989677 -4.969068325465753
H -9.708901293135835 -2.0246734165626386 -4.559065066351118
H -8.726537765242371 -1.3172044721556686 -5.4896481332314435
O 2.791827811582193 -12.16514427454171 -0.3907455390543211
H 3.4144315701486354 -12.34822871142784 -1.1103370938192638
H 2.7182190017761694 -11.198960270123415 -0.38507482259463455
O 0.7357354167693027 -9.761819722655336 -8.582649363618856
H 0.36345279880875037 -9.852786493235751 -9.472648271435382
H 0.8070368455192667 -8.803840119655877 -8.455554395995383
O -5.952757547631565 -0.6110506673831901 7.417266654777937
H -6.301997493745483 -0.6565131863333082 6.5145308261386505
H -6.548191881655321 -1.1803064019768574 7.927529142913121
O -10.493639937692846 -2.7228771661803726 -8.379048508545933
H -10.823289233811842 -2.618776525877682 -9.284289777576914
H -10.36812616479266 -3.67901802124305 -8.284164883023013
O -0.8615835245661594 8.95484820295704 -6.678900927556347
H -0.4669068235458842 9.8398244662408 -6.675070523391865
H -1.448428027136977 8.956946916754662 -5.907816581000922
O 3.5213119411080136 9.340852436564303 2.3929837200356054
H 3.805262587063914 8.793253100885737 3.1402951378030695
H 2.5971637376223415 9.085140030008214 2.2532582483867403
O 10.384802594124924 1.5916765241399808 -3.3623732813476956
H 10.462121175731482 1.5709595197835933 -2.396681819456866
H 11.302419838861045 1.6420588272486203 -3.6696226263370053
C 8.340684123771483 -2.1351248140063572 8.890597229084593
O 7.31597876177946 -2.7391568812336917 9.024546623132752
O 9.365389485763508 -1.5310927467790227 8.756647835036436