146

C -5.3564454929577465 1.0091607042253532 -0.0734429577464788
C -4.079135492957747 0.16955070422535368 -0.19788295774647868
C -4.333545492957747 -1.2789292957746463 0.3017270422535212
C -3.1403854929577464 -2.1745492957746464 0.7330270422535212
C -2.905235492957746 0.902300704225353 0.41966704225352136
C -2.7423854929577463 1.056130704225354 1.8024770422535212
C -1.8861754929577463 1.3499307042253532 -0.4326129577464788
C -1.5304554929577463 1.5279207042253526 2.3254170422535214
H -3.5237954929577464 0.7301007042253529 2.484817042253521
C -0.6776454929577462 1.8010507042253527 0.08546704225352131
H -1.9759254929577463 1.2426607042253535 -1.5115229577464788
C -0.4680254929577463 1.8513207042253539 1.4698070422535212
H -1.3950654929577464 1.5446707042253527 3.404047042253521
H 0.1461845070422536 1.9972507042253538 -0.6030529577464789
C -1.8679654929577463 -2.0866092957746467 -0.08765295774647863
C -0.6628654929577462 -1.814079295774647 0.5787970422535212
C -1.8438954929577462 -2.213429295774647 -1.4808029577464787
C 0.5129345070422537 -1.5763292957746469 -0.13022295774647863
H -0.6401854929577462 -1.7032692957746463 1.6609470422535213
C -0.6547954929577462 -1.9962392957746466 -2.1933129577464787
H -2.7578654929577464 -2.4351492957746466 -2.026182957746479
C 0.5308845070422537 -1.645769295774647 -1.5261029577464789
H 1.4044045070422537 -1.2610992957746463 0.41551704225352126
H -0.6795654929577464 -2.0467992957746466 -3.2793129577464786
C 1.7843245070422535 -1.2521692957746469 -2.2771629577464787
H 1.4981245070422535 -0.9384492957746469 -3.290282957746479
H 2.241984507042254 -0.38631929577464685 -1.8135029577464787
C 0.9385645070422537 2.0647807042253534 1.9815670422535212
H 1.0508945070422537 1.5807407042253532 2.9609770422535213
H 1.6053245070422537 1.5496207042253536 1.3096170422535214
C 3.9676945070422533 -1.6881692957746468 -3.314052957746479
H 4.795084507042254 -2.398849295774647 -3.4044129577464783
H 3.548404507042253 -1.4816192957746468 -4.303802957746479
H 4.307714507042253 -0.7637192957746466 -2.851282957746479
C 2.344694507042253 -3.565079295774647 -3.101282957746479
H 1.6334345070422536 -4.047909295774646 -2.4251929577464786
H 1.8561845070422536 -3.293109295774647 -4.041792957746479
H 3.1808045070422537 -4.243519295774647 -3.298122957746479
C 3.5156645070422536 -2.648489295774647 -1.1110629577464786
H 3.9311845070422535 -1.748249295774647 -0.6771029577464787
H 2.767184507042254 -3.1044092957746465 -0.45972295774647876
H 4.319224507042254 -3.371819295774647 -1.2863129577464787
C 2.963994507042253 3.381090704225353 2.401027042253521
H 3.3337945070422537 4.369820704225353 2.6912870422535216
H 3.120994507042253 2.671350704225353 3.2183370422535216
H 3.4665445070422534 3.0664207042253535 1.4881370422535212
C 1.2973745070422538 4.282440704225354 0.8488370422535213
H 1.7592145070422538 3.7367207042253527 0.02653704225352116
H 0.23311450704225378 4.4484607042253534 0.6605570422535213
H 1.7921845070422535 5.251370704225354 0.9736770422535213
C 0.7724845070422537 4.194670704225353 3.2772470422535216
H -0.2956954929577462 4.278220704225354 3.057857042253521
H 0.9298945070422537 3.612620704225354 4.190337042253521
H 1.2046345070422537 5.193640704225353 3.3918370422535213
N 2.876084507042253 -2.324759295774647 -2.4576629577464786
N 1.4527845070422536 3.504690704225353 2.1388470422535213
C -3.593905492957746 -3.637819295774647 0.8297870422535213
H -2.8952554929577463 -1.8680692957746468 1.7595270422535212
H -5.022615492957747 -1.2402792957746467 1.1579970422535213
H -4.898275492957747 -1.7933092957746464 -0.48931295774647876
H -3.883675492957746 0.07871070422535364 -1.2758929577464788
H -3.8751654929577466 -4.038529295774646 -0.1505529577464788
H -4.4603554929577465 -3.7321892957746465 1.4932570422535212
H -2.7953554929577464 -4.271929295774647 1.2313670422535212
H -5.648775492957746 1.147700704225353 0.9733970422535213
H -6.189795492957747 0.5254307042253537 -0.5943629577464788
H -5.2178854929577465 2.002970704225354 -0.5139729577464787
C 3.6710445070422537 1.0263707042253536 -0.27764295774647874
O 2.7356545070422538 1.6631507042253526 -0.7327029577464788
O 3.650814507042253 0.3883007042253537 0.7790570422535212
O 4.756604507042254 0.8696707042253538 -0.8334829577464786
O -5.421978503816344 -2.7116107052741625 8.213300070648513
H -5.187448234285943 -1.7714912341796918 8.20154040895897
H -6.300117571907985 -2.738904811223805 7.80453515878406
O 4.286727662791152 -9.472541519934058 0.6345427650365862
H 4.486718943675336 -9.062389798307171 -0.22029430114433524
H 4.198420266860452 -10.4149351920516 0.42703875332416086
O 2.492328982129884 6.001699455144651 4.763130667821337
H 2.5496540109862664 5.4910439267891435 5.5846610259497345
H 1.6727707970671326 6.509555355957133 4.8599227625738965
O 11.039396758951062 -4.0645956295722945 -0.9116960067449219
H 11.458227728346088 -4.195584403986933 -0.04775739957831482
H 10.472469651146385 -3.2895476049634835 -0.7818647382222567
O 1.8197140170873074 -2.692549256336843 -9.866524190414395
H 1.7332976185908922 -2.2890185971528823 -10.743258226521961
H 1.144250652982936 -2.2448747302723326 -9.335206294267724
O -11.841846004821083 -0.058768052322410114 2.4481635730205875
H -11.225633738704508 0.4267727524041205 3.0169341128105716
H -12.031060202690483 0.5596044442311836 1.7265158839570702
O 3.2401863422140678 10.792223789071572 -0.6082188259015826
H 2.2964125739455814 10.831283190391343 -0.8243965176203245
H 3.3688717980647676 9.888102703605712 -0.2842326216142226
O -3.352680853012406 -7.076302373972678 4.3161534075054915
H -3.6510867412283483 -7.28066668696173 3.4171781518090025
H -2.7107016687885768 -6.361043588622211 4.1927453797995025
O 2.070919586816126 5.74177616958766 -10.444786490653978
H 2.1426808910581094 6.515589490169668 -11.023604784251663
H 1.1810833658974116 5.400366558211923 -10.619694813787468
O 2.797702221824395 -14.709389236225363 1.2870982677098501
H 3.4890970424243415 -15.387916760192175 1.3103567751218632
H 2.0522183528997275 -15.118837552361871 1.7513910868295173
O 7.388670295849959 3.4819897394657313 -8.130453878892537
H 7.50105446116191 4.427721897573179 -8.309137513869459
H 6.482161435120936 3.2956355441322898 -8.417639783145153
O 14.81591566552712 2.1908544230311193 -5.484692650565866
H 15.013522873106814 2.6473217060810557 -6.316291332573939
H 14.550206226605313 2.9032970106661793 -4.88403800961841
O 6.894585287647132 -4.268723291619982 -10.696032906023984
H 7.724685874433774 -4.4748889285858775 -11.151440528765326
H 6.827394639285213 -4.95125970659562 -10.011495541590962
O -7.506329765552215 3.4302848580174072 11.953028469233347
H -7.558854705639396 4.194814077522217 12.546074470899498
H -8.204832064719769 2.838829033884337 12.271205291859868
O 10.099425330072492 -6.7456545470672005 2.9277572897944952
H 10.702945843332325 -6.429370467832247 2.2387763552273006
H 9.74240185301179 -7.570465935078889 2.565566241680772
O 0.0917067131657685 -2.810844296082562 4.669349394346064
H 0.6093784876696535 -2.8508453561751788 5.487507817864069
H -0.4551812154976709 -3.6102135653985483 4.699086728716151
O -2.465252078677593 -1.780169408526775 12.276872648899264
H -2.8573745776020476 -1.02419279065247 12.739156821205182
H -1.927817444022732 -1.3750956393025469 11.57970609831047
O -5.506248619754044 0.2522621431926937 5.164869632372061
H -5.325395311692815 0.42018358486560015 4.227820099375109
H -5.718100036775176 1.1274352504291025 5.522854204352903
O -2.078807776012378 5.304576372535363 -6.519644807014421
H -2.0209932206431285 4.380668957855929 -6.233253600466769
H -1.1715327339111572 5.526988780614003 -6.777223266930788
O 8.733744194959609 0.3613497666932064 -15.334483878934218
H 8.761439278231366 -0.29339760103659795 -16.048280925519215
H 8.221110089083528 -0.07426500699361327 -14.637054322105422
O -12.024804259350033 7.89105292546577 2.481107965269156
H -11.734685993154153 7.14011641734802 3.0204530396838747
H -11.314628953322895 8.542067358830515 2.584998227373175
O -1.904888835726981 -5.78246027701537 -5.011446919492018
H -1.5922885064031116 -5.473554110511134 -5.875058736978477
H -1.2254501123015138 -6.412664670142477 -4.728308458146219
O -7.137516260837337 10.394041236637518 -0.19700410644773791
H -7.554217079068468 9.526391541260539 -0.30886022428552584
H -6.695735998653913 10.552558855310519 -1.0447448149284537
O 11.212785581146598 1.594286367309683 1.7681960880154062
H 10.732634690342561 1.3530558391658603 2.5745646831699682
H 10.585453005229759 2.147432307300982 1.2788645515652353
C 2.0875310713671125 4.105441908666203 -12.256936336116361
O 3.2691905763135085 4.26980977518955 -12.159559356678717
O 0.9058715664207154 3.9410740421428545 -12.354313315554007