146

C -5.3564454929577465 1.0091607042253532 -0.0734429577464788
C -4.079135492957747 0.16955070422535368 -0.19788295774647868
C -4.333545492957747 -1.2789292957746463 0.3017270422535212
C -3.1403854929577464 -2.1745492957746464 0.7330270422535212
C -2.905235492957746 0.902300704225353 0.41966704225352136
C -2.7423854929577463 1.056130704225354 1.8024770422535212
C -1.8861754929577463 1.3499307042253532 -0.4326129577464788
C -1.5304554929577463 1.5279207042253526 2.3254170422535214
H -3.5237954929577464 0.7301007042253529 2.484817042253521
C -0.6776454929577462 1.8010507042253527 0.08546704225352131
H -1.9759254929577463 1.2426607042253535 -1.5115229577464788
C -0.4680254929577463 1.8513207042253539 1.4698070422535212
H -1.3950654929577464 1.5446707042253527 3.404047042253521
H 0.1461845070422536 1.9972507042253538 -0.6030529577464789
C -1.8679654929577463 -2.0866092957746467 -0.08765295774647863
C -0.6628654929577462 -1.814079295774647 0.5787970422535212
C -1.8438954929577462 -2.213429295774647 -1.4808029577464787
C 0.5129345070422537 -1.5763292957746469 -0.13022295774647863
H -0.6401854929577462 -1.7032692957746463 1.6609470422535213
C -0.6547954929577462 -1.9962392957746466 -2.1933129577464787
H -2.7578654929577464 -2.4351492957746466 -2.026182957746479
C 0.5308845070422537 -1.645769295774647 -1.5261029577464789
H 1.4044045070422537 -1.2610992957746463 0.41551704225352126
H -0.6795654929577464 -2.0467992957746466 -3.2793129577464786
C 1.7843245070422535 -1.2521692957746469 -2.2771629577464787
H 1.4981245070422535 -0.9384492957746469 -3.290282957746479
H 2.241984507042254 -0.38631929577464685 -1.8135029577464787
C 0.9385645070422537 2.0647807042253534 1.9815670422535212
H 1.0508945070422537 1.5807407042253532 2.9609770422535213
H 1.6053245070422537 1.5496207042253536 1.3096170422535214
C 3.9676945070422533 -1.6881692957746468 -3.314052957746479
H 4.795084507042254 -2.398849295774647 -3.4044129577464783
H 3.548404507042253 -1.4816192957746468 -4.303802957746479
H 4.307714507042253 -0.7637192957746466 -2.851282957746479
C 2.344694507042253 -3.565079295774647 -3.101282957746479
H 1.6334345070422536 -4.047909295774646 -2.4251929577464786
H 1.8561845070422536 -3.293109295774647 -4.041792957746479
H 3.1808045070422537 -4.243519295774647 -3.298122957746479
C 3.5156645070422536 -2.648489295774647 -1.1110629577464786
H 3.9311845070422535 -1.748249295774647 -0.6771029577464787
H 2.767184507042254 -3.1044092957746465 -0.45972295774647876
H 4.319224507042254 -3.371819295774647 -1.2863129577464787
C 2.963994507042253 3.381090704225353 2.401027042253521
H 3.3337945070422537 4.369820704225353 2.6912870422535216
H 3.120994507042253 2.671350704225353 3.2183370422535216
H 3.4665445070422534 3.0664207042253535 1.4881370422535212
C 1.2973745070422538 4.282440704225354 0.8488370422535213
H 1.7592145070422538 3.7367207042253527 0.02653704225352116
H 0.23311450704225378 4.4484607042253534 0.6605570422535213
H 1.7921845070422535 5.251370704225354 0.9736770422535213
C 0.7724845070422537 4.194670704225353 3.2772470422535216
H -0.2956954929577462 4.278220704225354 3.057857042253521
H 0.9298945070422537 3.612620704225354 4.190337042253521
H 1.2046345070422537 5.193640704225353 3.3918370422535213
N 2.876084507042253 -2.324759295774647 -2.4576629577464786
N 1.4527845070422536 3.504690704225353 2.1388470422535213
C -3.593905492957746 -3.637819295774647 0.8297870422535213
H -2.8952554929577463 -1.8680692957746468 1.7595270422535212
H -5.022615492957747 -1.2402792957746467 1.1579970422535213
H -4.898275492957747 -1.7933092957746464 -0.48931295774647876
H -3.883675492957746 0.07871070422535364 -1.2758929577464788
H -3.8751654929577466 -4.038529295774646 -0.1505529577464788
H -4.4603554929577465 -3.7321892957746465 1.4932570422535212
H -2.7953554929577464 -4.271929295774647 1.2313670422535212
H -5.648775492957746 1.147700704225353 0.9733970422535213
H -6.189795492957747 0.5254307042253537 -0.5943629577464788
H -5.2178854929577465 2.002970704225354 -0.5139729577464787
C 3.6710445070422537 1.0263707042253536 -0.27764295774647874
O 2.7356545070422538 1.6631507042253526 -0.7327029577464788
O 3.650814507042253 0.3883007042253537 0.7790570422535212
O 4.756604507042254 0.8696707042253538 -0.8334829577464786
O 1.5579108257686751 11.015218222758508 5.243330395035763
H 2.151213284394524 10.884709719895078 4.4883952453911915
H 1.1123605604695548 10.160331290836957 5.341387720216709
O 6.515659893976497 9.835801660609436 -4.012509257141713
H 6.517440509824079 9.656753635408418 -4.964825376389319
H 7.434728996374126 9.686033420784682 -3.7444730587322246
O -10.133409393670103 5.990654132586868 -1.241870239603195
H -10.518245896841533 6.639688069857423 -0.6339038170123847
H -10.223838231199643 6.404116880380153 -2.1135543141567474
O -10.992760868951788 6.824952484475142 6.028802932566855
H -11.547600499273548 7.463033792902405 5.555545512804454
H -11.336240305580736 5.963202591929835 5.748854823783803
O -2.5714012486707594 1.399241171248633 -14.921385401907273
H -2.1688912738251895 1.3112515094642538 -15.79843209192377
H -3.50020858356459 1.163580293794808 -15.065409114486535
O -0.9605292107062275 2.014322384509474 -6.167292080790011
H -1.4738578347065832 1.2040394587132266 -6.304779028697717
H -1.2345448768424814 2.318818434997252 -5.2891351960312285
O 4.445972436178437 3.5203051133369776 -6.8875511252800345
H 4.602830484803378 4.368381672589755 -6.445816975448319
H 3.4956447132333346 3.3692240207918216 -6.773473665730219
O 0.4881807411205843 -11.083319827055664 -2.968981348922504
H 0.6307803829422891 -10.845113045898405 -2.04060091587632
H 0.7836044998765583 -10.301460681018956 -3.4592700626629282
O -6.124243942773391 -2.140851880356812 -4.9289133237355465
H -6.583230074672926 -1.5384851341859216 -5.533440734802568
H -5.2639712676066885 -1.71840804537693 -4.785965518754091
O 12.546554422667917 -3.2357932572591332 5.218471134709057
H 13.444389323828917 -2.9698623407789837 5.467751287984933
H 12.120740914989659 -3.4434061164831933 6.063776820046348
O -9.144664552915335 -2.2321707459219873 10.195331420266317
H -9.394207736105184 -2.4903497534999293 9.29530966682391
H -9.743481058722427 -2.74352214936183 10.760044160403362
O -2.4446667994438127 -8.037270029214845 2.4748734948906113
H -2.497604080163624 -7.401635312894994 1.7453986779030923
H -3.3340939407190837 -8.026989108204187 2.85928942500547
O -6.306732094775468 -7.89366259200718 2.4570937371217307
H -6.067066554467564 -7.973446657249475 1.5215926475326622
H -5.463067554088404 -7.990052743905357 2.923892436460462
O -2.120198048393976 10.4927790014318 -0.28723641390416343
H -2.4461764435311064 9.782125193240255 -0.8596668530901646
H -1.8232576073401319 11.1753991554037 -0.9075734546796808
O 2.3656363260821047 13.742408134418941 2.2535278400988146
H 2.113719442206176 14.295311992457819 3.008380517304089
H 1.644581914744741 13.870087778533321 1.6189095385428685
O -6.047263968327618 -11.411133983532526 -4.331354102328309
H -6.196403956475322 -12.126227463287993 -4.968037646992787
H -6.909304830058508 -11.294198588568197 -3.904536096135037
O -7.720228909000685 -4.04968499395433 -6.960203933325765
H -7.088086163829333 -3.5686359066972084 -7.5151405804093026
H -7.374559573203467 -4.954756462242731 -6.942307233077173
O -1.4774300655731376 -9.63954274302975 -3.98899479242571
H -0.7099705606466788 -10.004565359691313 -4.454539370875059
H -2.032246404204845 -10.413472013374655 -3.8096229462772424
O -7.241275525117708 3.9200852032457076 -3.7887101108127985
H -7.677331779018011 4.059049938863984 -4.642824331856435
H -7.97562147772054 3.828304791027264 -3.1631908687995325
O 0.9364127681000838 3.2263563115858545 15.054233545476437
H 0.8028092727429234 3.974190243871778 15.655783105072425
H 1.6271279749234322 3.5339511588657566 14.448213861563588
O 7.038068926267913 -10.4176075173143 1.7247266587577301
H 6.085145904949618 -10.565183839613915 1.6291949810893716
H 7.097662323379929 -9.599724902778005 2.2409423115230456
O -8.970803472580105 5.0616607334318235 -10.483973880123424
H -8.825784359110212 5.34852641244005 -11.398110027442605
H -9.040731863857566 5.890488639584263 -9.986865977977113
O -1.0285952982198805 -5.675014260551306 4.575359067520479
H -1.0465002854953451 -5.726859361298322 5.542808732288211
H -1.9037840670920605 -5.329877178956055 4.343223421727097
O 2.7263039415692765 -7.485645712113379 -1.8651548254141916
H 3.005799755557384 -8.4127023817387 -1.9027763374297404
H 2.7461097097866007 -7.197489980733233 -2.790106689198516
C -0.8301177159358066 -0.9944391415773828 -6.709547590847449
O -0.25845185210191346 -2.044973245801912 -6.660614030909362
O -1.4017835797697002 0.05609496264714653 -6.758481150785535