146

C -5.3564454929577465 1.0091607042253532 -0.0734429577464788
C -4.079135492957747 0.16955070422535368 -0.19788295774647868
C -4.333545492957747 -1.2789292957746463 0.3017270422535212
C -3.1403854929577464 -2.1745492957746464 0.7330270422535212
C -2.905235492957746 0.902300704225353 0.41966704225352136
C -2.7423854929577463 1.056130704225354 1.8024770422535212
C -1.8861754929577463 1.3499307042253532 -0.4326129577464788
C -1.5304554929577463 1.5279207042253526 2.3254170422535214
H -3.5237954929577464 0.7301007042253529 2.484817042253521
C -0.6776454929577462 1.8010507042253527 0.08546704225352131
H -1.9759254929577463 1.2426607042253535 -1.5115229577464788
C -0.4680254929577463 1.8513207042253539 1.4698070422535212
H -1.3950654929577464 1.5446707042253527 3.404047042253521
H 0.1461845070422536 1.9972507042253538 -0.6030529577464789
C -1.8679654929577463 -2.0866092957746467 -0.08765295774647863
C -0.6628654929577462 -1.814079295774647 0.5787970422535212
C -1.8438954929577462 -2.213429295774647 -1.4808029577464787
C 0.5129345070422537 -1.5763292957746469 -0.13022295774647863
H -0.6401854929577462 -1.7032692957746463 1.6609470422535213
C -0.6547954929577462 -1.9962392957746466 -2.1933129577464787
H -2.7578654929577464 -2.4351492957746466 -2.026182957746479
C 0.5308845070422537 -1.645769295774647 -1.5261029577464789
H 1.4044045070422537 -1.2610992957746463 0.41551704225352126
H -0.6795654929577464 -2.0467992957746466 -3.2793129577464786
C 1.7843245070422535 -1.2521692957746469 -2.2771629577464787
H 1.4981245070422535 -0.9384492957746469 -3.290282957746479
H 2.241984507042254 -0.38631929577464685 -1.8135029577464787
C 0.9385645070422537 2.0647807042253534 1.9815670422535212
H 1.0508945070422537 1.5807407042253532 2.9609770422535213
H 1.6053245070422537 1.5496207042253536 1.3096170422535214
C 3.9676945070422533 -1.6881692957746468 -3.314052957746479
H 4.795084507042254 -2.398849295774647 -3.4044129577464783
H 3.548404507042253 -1.4816192957746468 -4.303802957746479
H 4.307714507042253 -0.7637192957746466 -2.851282957746479
C 2.344694507042253 -3.565079295774647 -3.101282957746479
H 1.6334345070422536 -4.047909295774646 -2.4251929577464786
H 1.8561845070422536 -3.293109295774647 -4.041792957746479
H 3.1808045070422537 -4.243519295774647 -3.298122957746479
C 3.5156645070422536 -2.648489295774647 -1.1110629577464786
H 3.9311845070422535 -1.748249295774647 -0.6771029577464787
H 2.767184507042254 -3.1044092957746465 -0.45972295774647876
H 4.319224507042254 -3.371819295774647 -1.2863129577464787
C 2.963994507042253 3.381090704225353 2.401027042253521
H 3.3337945070422537 4.369820704225353 2.6912870422535216
H 3.120994507042253 2.671350704225353 3.2183370422535216
H 3.4665445070422534 3.0664207042253535 1.4881370422535212
C 1.2973745070422538 4.282440704225354 0.8488370422535213
H 1.7592145070422538 3.7367207042253527 0.02653704225352116
H 0.23311450704225378 4.4484607042253534 0.6605570422535213
H 1.7921845070422535 5.251370704225354 0.9736770422535213
C 0.7724845070422537 4.194670704225353 3.2772470422535216
H -0.2956954929577462 4.278220704225354 3.057857042253521
H 0.9298945070422537 3.612620704225354 4.190337042253521
H 1.2046345070422537 5.193640704225353 3.3918370422535213
N 2.876084507042253 -2.324759295774647 -2.4576629577464786
N 1.4527845070422536 3.504690704225353 2.1388470422535213
C -3.593905492957746 -3.637819295774647 0.8297870422535213
H -2.8952554929577463 -1.8680692957746468 1.7595270422535212
H -5.022615492957747 -1.2402792957746467 1.1579970422535213
H -4.898275492957747 -1.7933092957746464 -0.48931295774647876
H -3.883675492957746 0.07871070422535364 -1.2758929577464788
H -3.8751654929577466 -4.038529295774646 -0.1505529577464788
H -4.4603554929577465 -3.7321892957746465 1.4932570422535212
H -2.7953554929577464 -4.271929295774647 1.2313670422535212
H -5.648775492957746 1.147700704225353 0.9733970422535213
H -6.189795492957747 0.5254307042253537 -0.5943629577464788
H -5.2178854929577465 2.002970704225354 -0.5139729577464787
C 3.6710445070422537 1.0263707042253536 -0.27764295774647874
O 2.7356545070422538 1.6631507042253526 -0.7327029577464788
O 3.650814507042253 0.3883007042253537 0.7790570422535212
O 4.756604507042254 0.8696707042253538 -0.8334829577464786
O -6.3085257009690165 6.2973336114725456 -8.019526171551835
H -6.14820197182868 6.732495787950283 -7.168704486979976
H -6.919783095280743 5.577396067134826 -7.802693806688527
O -7.396067872687769 6.833124844311097 0.4637997454092004
H -7.4000769794574675 6.820827407216267 -0.5051172051101973
H -6.529191720534283 6.469514570394782 0.6989066356316447
O 3.412429661513214 6.239585498733889 -9.563449838861537
H 3.2762468738013846 6.288425030212453 -10.52159195013522
H 4.203477157709955 6.778270805572107 -9.411713411931542
O -6.886396616476066 2.535353115614826 -4.325129620456737
H -6.743360079993852 1.639625658535026 -4.6659818300205425
H -7.802716160857566 2.522409855642412 -4.010244071557195
O -0.8803572236344852 -10.457886057215422 -1.396560937748377
H -0.982991796096881 -10.374217160935434 -0.43664791188053775
H -1.7293839699984739 -10.152840102641758 -1.7502026969579205
O -9.368812112657782 -4.962096228669212 -6.372467669375957
H -10.302327983932866 -4.976383106823411 -6.63191199883823
H -9.391148006952333 -5.082755847058962 -5.411268257902925
O 1.889730456336406 -6.256326950403255 0.1769088515487902
H 1.1428438827101082 -5.73632701747999 -0.15584912776436033
H 1.8431386752768635 -7.0822861204326415 -0.3276529382074975
O -7.118128608584154 10.597486888416498 7.154785601977256
H -7.5871844133269875 10.512468745185036 6.311147098672358
H -6.2627956422049476 10.172630366364531 6.990881982142749
O 10.21309491340729 -0.8868501738716921 8.537166727874512
H 11.176867710983897 -0.9022823863547558 8.437812823224341
H 10.067404555438154 -0.33634604797477063 9.321182972135619
O 2.2671741349640513 10.369328890409522 2.791182487306489
H 2.45113884767064 11.307175898157523 2.951080365456581
H 2.97476402760331 10.091118282109464 2.190451810909756
O 13.539587077883706 -0.06330776845835917 -6.086225265744561
H 14.176249867880603 0.5442933683751772 -6.491748023739673
H 13.990482870250435 -0.9208293295664971 -6.1038803205629595
O -1.3366911407155257 -9.927254064225647 -6.78462259035211
H -0.8615255557652933 -9.923387010908613 -5.940128617799583
H -1.0510445045436438 -10.749627128848427 -7.210146368919917
O -2.7458556189509533 14.4703112318813 -2.6934336206815144
H -2.4679495122547497 14.762074656818918 -3.574688213083523
H -2.0080212167872515 14.724777914392119 -2.119143583526356
O -2.7779005954739877 5.356402164024634 9.377952771819617
H -1.8470130847085255 5.087324463983856 9.374348532420187
H -2.8024478035571443 6.122314280426193 8.784877726968961
O 6.049596177236575 -1.2977757410744049 0.42053766989053276
H 6.673586841587873 -0.5568041612879455 0.3967863404290819
H 5.726699961615751 -1.3026603979986466 1.3341437766808069
O 13.932356465800005 1.740274823686252 6.737438557593436
H 13.934870202928096 1.7127619197726656 7.706047910296523
H 13.7479320100746 0.825112869591158 6.4777692251584424
O -0.0525661002454097 5.615098674793129 5.948137758949915
H 0.13760747267797724 4.9069051638662025 5.314684271989311
H 0.821668453434474 5.963134196573295 6.1795403627194965
O -4.669876565067618 9.390453036197464 -6.17522985895705
H -4.3746245228702 10.072300862198732 -6.79722433695151
H -5.370286225919364 8.923394984461211 -6.655068402212882
O -7.5364773932994105 -6.451062964937785 -6.826075290319646
H -7.884679849726243 -5.778359113386948 -7.4303864141184635
H -7.805019218830568 -7.289978050721327 -7.229892960915158
O -13.350830117390487 3.3740053673536154 -3.388352510723961
H -13.879434218791102 2.7605946210838788 -2.856119181024239
H -12.442465539133268 3.0541641413305776 -3.28094055885796
O -7.090455296101071 1.288090716989459 4.972127481629176
H -8.037158683183181 1.391054560387118 4.792911129863932
H -7.05789026302901 0.6447518859762704 5.6960173982819775
O 8.536462272350366 -8.535555343701612 2.4072949690350534
H 8.44726868408674 -7.997949623679159 1.6060509671780667
H 7.656564259417822 -8.500720273496809 2.8116808602592447
O 9.695114373043852 -5.568148957962469 -5.088709049918982
H 10.648917071443865 -5.456660672359538 -5.21831665617021
H 9.40497529529934 -4.712669808782254 -4.738085768912919
O -6.495968206227656 -5.703942812707059 -9.632239210041678
H -7.187780398822289 -6.3817031543167335 -9.663927795029682
H -6.98709531192562 -4.870839186954899 -9.571457147660194
C 4.602788984158842 10.45857742140058 -8.485651678240096
O 4.493970019527378 10.29938385533375 -7.304282092225853
O 4.711607948790304 10.617770987467413 -9.667021264254338