146

C -5.3564454929577465 1.0091607042253532 -0.0734429577464788
C -4.079135492957747 0.16955070422535368 -0.19788295774647868
C -4.333545492957747 -1.2789292957746463 0.3017270422535212
C -3.1403854929577464 -2.1745492957746464 0.7330270422535212
C -2.905235492957746 0.902300704225353 0.41966704225352136
C -2.7423854929577463 1.056130704225354 1.8024770422535212
C -1.8861754929577463 1.3499307042253532 -0.4326129577464788
C -1.5304554929577463 1.5279207042253526 2.3254170422535214
H -3.5237954929577464 0.7301007042253529 2.484817042253521
C -0.6776454929577462 1.8010507042253527 0.08546704225352131
H -1.9759254929577463 1.2426607042253535 -1.5115229577464788
C -0.4680254929577463 1.8513207042253539 1.4698070422535212
H -1.3950654929577464 1.5446707042253527 3.404047042253521
H 0.1461845070422536 1.9972507042253538 -0.6030529577464789
C -1.8679654929577463 -2.0866092957746467 -0.08765295774647863
C -0.6628654929577462 -1.814079295774647 0.5787970422535212
C -1.8438954929577462 -2.213429295774647 -1.4808029577464787
C 0.5129345070422537 -1.5763292957746469 -0.13022295774647863
H -0.6401854929577462 -1.7032692957746463 1.6609470422535213
C -0.6547954929577462 -1.9962392957746466 -2.1933129577464787
H -2.7578654929577464 -2.4351492957746466 -2.026182957746479
C 0.5308845070422537 -1.645769295774647 -1.5261029577464789
H 1.4044045070422537 -1.2610992957746463 0.41551704225352126
H -0.6795654929577464 -2.0467992957746466 -3.2793129577464786
C 1.7843245070422535 -1.2521692957746469 -2.2771629577464787
H 1.4981245070422535 -0.9384492957746469 -3.290282957746479
H 2.241984507042254 -0.38631929577464685 -1.8135029577464787
C 0.9385645070422537 2.0647807042253534 1.9815670422535212
H 1.0508945070422537 1.5807407042253532 2.9609770422535213
H 1.6053245070422537 1.5496207042253536 1.3096170422535214
C 3.9676945070422533 -1.6881692957746468 -3.314052957746479
H 4.795084507042254 -2.398849295774647 -3.4044129577464783
H 3.548404507042253 -1.4816192957746468 -4.303802957746479
H 4.307714507042253 -0.7637192957746466 -2.851282957746479
C 2.344694507042253 -3.565079295774647 -3.101282957746479
H 1.6334345070422536 -4.047909295774646 -2.4251929577464786
H 1.8561845070422536 -3.293109295774647 -4.041792957746479
H 3.1808045070422537 -4.243519295774647 -3.298122957746479
C 3.5156645070422536 -2.648489295774647 -1.1110629577464786
H 3.9311845070422535 -1.748249295774647 -0.6771029577464787
H 2.767184507042254 -3.1044092957746465 -0.45972295774647876
H 4.319224507042254 -3.371819295774647 -1.2863129577464787
C 2.963994507042253 3.381090704225353 2.401027042253521
H 3.3337945070422537 4.369820704225353 2.6912870422535216
H 3.120994507042253 2.671350704225353 3.2183370422535216
H 3.4665445070422534 3.0664207042253535 1.4881370422535212
C 1.2973745070422538 4.282440704225354 0.8488370422535213
H 1.7592145070422538 3.7367207042253527 0.02653704225352116
H 0.23311450704225378 4.4484607042253534 0.6605570422535213
H 1.7921845070422535 5.251370704225354 0.9736770422535213
C 0.7724845070422537 4.194670704225353 3.2772470422535216
H -0.2956954929577462 4.278220704225354 3.057857042253521
H 0.9298945070422537 3.612620704225354 4.190337042253521
H 1.2046345070422537 5.193640704225353 3.3918370422535213
N 2.876084507042253 -2.324759295774647 -2.4576629577464786
N 1.4527845070422536 3.504690704225353 2.1388470422535213
C -3.593905492957746 -3.637819295774647 0.8297870422535213
H -2.8952554929577463 -1.8680692957746468 1.7595270422535212
H -5.022615492957747 -1.2402792957746467 1.1579970422535213
H -4.898275492957747 -1.7933092957746464 -0.48931295774647876
H -3.883675492957746 0.07871070422535364 -1.2758929577464788
H -3.8751654929577466 -4.038529295774646 -0.1505529577464788
H -4.4603554929577465 -3.7321892957746465 1.4932570422535212
H -2.7953554929577464 -4.271929295774647 1.2313670422535212
H -5.648775492957746 1.147700704225353 0.9733970422535213
H -6.189795492957747 0.5254307042253537 -0.5943629577464788
H -5.2178854929577465 2.002970704225354 -0.5139729577464787
C 3.6710445070422537 1.0263707042253536 -0.27764295774647874
O 2.7356545070422538 1.6631507042253526 -0.7327029577464788
O 3.650814507042253 0.3883007042253537 0.7790570422535212
O 4.756604507042254 0.8696707042253538 -0.8334829577464786
O -11.887385243162955 -0.5367391682078688 -0.07899762499564034
H -11.24131096223215 -0.5249563071625301 0.6430941590632373
H -12.1395583107883 -1.4694801625154428 -0.15224327880896382
O 9.874553390924612 -5.290292817783737 -2.4099807368548447
H 10.13019455066573 -5.673862239123437 -3.2623242435229867
H 9.219361089747613 -5.912712851903638 -2.060297603283074
O -5.161636832034519 7.5875998688465245 -3.421388035227209
H -4.900041855076074 8.252368891238694 -2.766699122996469
H -4.469399804605155 6.912427009811033 -3.358846428455422
O 1.8054163726043326 2.1793680511171045 -11.811358558587681
H 0.9559105013050884 2.1934995058552804 -11.345410671463924
H 2.0464274821962674 1.2410084621434336 -11.830249591762925
O 9.35462302242694 -8.772842638476067 -1.1677085314762428
H 10.227721395755202 -8.526131040215462 -1.5080024848095976
H 8.73787540571787 -8.413173543947314 -1.822859250032324
O 2.104117435091217 7.538711644585467 -6.841469264020017
H 2.026776780700322 7.611669843103026 -5.8783166897372805
H 2.475350116770504 6.654452693492747 -6.980157215066985
O -3.749976691248378 3.5522249397194208 -6.314401394144713
H -3.819662284118754 3.458673063366076 -7.276357381431592
H -4.381682600754355 4.25541591078845 -6.101253449274906
O -4.734156887289775 4.734982845242973 5.0359778810974944
H -4.327760188322649 4.57601416267325 4.1707969532386615
H -4.775388014722526 3.8553672669497354 5.44037666058932
O 4.611775898221819 10.90425794111276 -2.2888520712605382
H 4.763640094377716 11.731032045173336 -2.7708782154485463
H 5.224572478058154 10.95404272100285 -1.5398769236540337
O -1.0161154906377372 -0.48788207438792547 -1.1091259856970193
H -0.4113896133482777 -0.18256389063129352 -1.8019858394221764
H -1.8787165881569186 -0.52116171851695 -1.54932339157914
O 0.08449375274689519 -12.984782080222828 -3.864542224415851
H 0.13812270745141308 -13.003342300194753 -4.83188229406659
H -0.8332045466787532 -13.232414358181707 -3.6762073353374625
O -4.981570210008272 4.436238413484446 -7.831454910142222
H -5.256358386485289 4.821573443500398 -8.677017284902975
H -5.149494515640745 5.140688622863806 -7.187627856980251
O 7.336184157029154 5.827426220254821 -4.283644722381744
H 7.350797574926324 5.69710347561924 -5.243733149115456
H 6.39437428803845 5.797472221001526 -4.057682617371982
O -9.254633950325587 1.070682269095915 7.310083439414312
H -9.546737827710576 0.8642872973347409 6.409503738694625
H -8.864767819937999 0.24153688798784145 7.6254947291040684
O -2.652356476658669 4.317053769431501 7.8865868754401065
H -2.1957653710580813 3.462930194754068 7.855525027995436
H -3.388923511446397 4.21141705431547 7.265884183337432
O 7.01722720075953 -5.004138849339083 5.138239532069809
H 7.4023461164416675 -5.073124644184498 6.024744883318949
H 6.134349621135037 -5.391397962052086 5.23580747412627
O 0.7501540685848522 -5.473862517636656 0.47969307193405175
H 1.170386084967687 -4.694361122933325 0.8730758180762543
H 1.332246652026995 -6.206164251221802 0.7324070200846071
O 2.2503724735631354 -5.191940906270649 -6.178426219770252
H 1.9615314706891684 -4.316021162905565 -5.881268290140218
H 2.6469171608047577 -5.588238745246021 -5.388070427646291
O -3.7566015746410386 -7.35904984918178 7.898681686332203
H -3.7565279036726427 -7.415921345294135 8.86601460958176
H -4.092416594935816 -8.222104933020326 7.613504305208004
O -11.486309948804056 -5.739090779466021 4.507736594215778
H -11.554331376230166 -6.6404104787392555 4.856968955277751
H -11.338814998311628 -5.866377185295434 3.558523575568084
O -5.199014773523395 0.46766814119973343 -7.677537306422806
H -6.019362863354273 0.5913234107758294 -7.176832061076911
H -4.504987791600668 0.5034293995244123 -7.0022524590685435
O -5.379183552519719 -1.6278872369318351 3.902261087832826
H -5.407371815537469 -1.722597389658619 4.86621272857966
H -6.30263772813422 -1.736094812360426 3.6293408605501885
O 6.9326764903659885 -5.264075199674252 -11.262145311364673
H 6.089149169487044 -4.859882241082088 -11.515240289693573
H 7.485140117414957 -4.510864212287604 -11.004426290786203
O 1.6086451838083713 10.891588578198395 9.197811980083701
H 1.7117000447115704 10.920480814393317 10.16088637556511
H 2.29523684370639 10.272538120120762 8.907415066855691
C 11.493534822853066 -0.49946542865963983 -4.919365268137852
O 11.180261363506967 -1.0095981322611387 -3.8828120270134256
O 11.806808282199166 0.01066727494185904 -5.955918509262279