146

C -5.3564454929577465 1.0091607042253532 -0.0734429577464788
C -4.079135492957747 0.16955070422535368 -0.19788295774647868
C -4.333545492957747 -1.2789292957746463 0.3017270422535212
C -3.1403854929577464 -2.1745492957746464 0.7330270422535212
C -2.905235492957746 0.902300704225353 0.41966704225352136
C -2.7423854929577463 1.056130704225354 1.8024770422535212
C -1.8861754929577463 1.3499307042253532 -0.4326129577464788
C -1.5304554929577463 1.5279207042253526 2.3254170422535214
H -3.5237954929577464 0.7301007042253529 2.484817042253521
C -0.6776454929577462 1.8010507042253527 0.08546704225352131
H -1.9759254929577463 1.2426607042253535 -1.5115229577464788
C -0.4680254929577463 1.8513207042253539 1.4698070422535212
H -1.3950654929577464 1.5446707042253527 3.404047042253521
H 0.1461845070422536 1.9972507042253538 -0.6030529577464789
C -1.8679654929577463 -2.0866092957746467 -0.08765295774647863
C -0.6628654929577462 -1.814079295774647 0.5787970422535212
C -1.8438954929577462 -2.213429295774647 -1.4808029577464787
C 0.5129345070422537 -1.5763292957746469 -0.13022295774647863
H -0.6401854929577462 -1.7032692957746463 1.6609470422535213
C -0.6547954929577462 -1.9962392957746466 -2.1933129577464787
H -2.7578654929577464 -2.4351492957746466 -2.026182957746479
C 0.5308845070422537 -1.645769295774647 -1.5261029577464789
H 1.4044045070422537 -1.2610992957746463 0.41551704225352126
H -0.6795654929577464 -2.0467992957746466 -3.2793129577464786
C 1.7843245070422535 -1.2521692957746469 -2.2771629577464787
H 1.4981245070422535 -0.9384492957746469 -3.290282957746479
H 2.241984507042254 -0.38631929577464685 -1.8135029577464787
C 0.9385645070422537 2.0647807042253534 1.9815670422535212
H 1.0508945070422537 1.5807407042253532 2.9609770422535213
H 1.6053245070422537 1.5496207042253536 1.3096170422535214
C 3.9676945070422533 -1.6881692957746468 -3.314052957746479
H 4.795084507042254 -2.398849295774647 -3.4044129577464783
H 3.548404507042253 -1.4816192957746468 -4.303802957746479
H 4.307714507042253 -0.7637192957746466 -2.851282957746479
C 2.344694507042253 -3.565079295774647 -3.101282957746479
H 1.6334345070422536 -4.047909295774646 -2.4251929577464786
H 1.8561845070422536 -3.293109295774647 -4.041792957746479
H 3.1808045070422537 -4.243519295774647 -3.298122957746479
C 3.5156645070422536 -2.648489295774647 -1.1110629577464786
H 3.9311845070422535 -1.748249295774647 -0.6771029577464787
H 2.767184507042254 -3.1044092957746465 -0.45972295774647876
H 4.319224507042254 -3.371819295774647 -1.2863129577464787
C 2.963994507042253 3.381090704225353 2.401027042253521
H 3.3337945070422537 4.369820704225353 2.6912870422535216
H 3.120994507042253 2.671350704225353 3.2183370422535216
H 3.4665445070422534 3.0664207042253535 1.4881370422535212
C 1.2973745070422538 4.282440704225354 0.8488370422535213
H 1.7592145070422538 3.7367207042253527 0.02653704225352116
H 0.23311450704225378 4.4484607042253534 0.6605570422535213
H 1.7921845070422535 5.251370704225354 0.9736770422535213
C 0.7724845070422537 4.194670704225353 3.2772470422535216
H -0.2956954929577462 4.278220704225354 3.057857042253521
H 0.9298945070422537 3.612620704225354 4.190337042253521
H 1.2046345070422537 5.193640704225353 3.3918370422535213
N 2.876084507042253 -2.324759295774647 -2.4576629577464786
N 1.4527845070422536 3.504690704225353 2.1388470422535213
C -3.593905492957746 -3.637819295774647 0.8297870422535213
H -2.8952554929577463 -1.8680692957746468 1.7595270422535212
H -5.022615492957747 -1.2402792957746467 1.1579970422535213
H -4.898275492957747 -1.7933092957746464 -0.48931295774647876
H -3.883675492957746 0.07871070422535364 -1.2758929577464788
H -3.8751654929577466 -4.038529295774646 -0.1505529577464788
H -4.4603554929577465 -3.7321892957746465 1.4932570422535212
H -2.7953554929577464 -4.271929295774647 1.2313670422535212
H -5.648775492957746 1.147700704225353 0.9733970422535213
H -6.189795492957747 0.5254307042253537 -0.5943629577464788
H -5.2178854929577465 2.002970704225354 -0.5139729577464787
C 3.6710445070422537 1.0263707042253536 -0.27764295774647874
O 2.7356545070422538 1.6631507042253526 -0.7327029577464788
O 3.650814507042253 0.3883007042253537 0.7790570422535212
O 4.756604507042254 0.8696707042253538 -0.8334829577464786
O 3.9230714274077565 -10.268227145968066 -4.916370411036903
H 3.7251332156840875 -10.862636624738425 -5.655603251749211
H 4.888369028271539 -10.303681277477741 -4.839523220941755
O 3.383354022321768 -7.970234722139004 10.938792416927463
H 4.070504539758056 -8.440564817550202 11.434353840605228
H 3.222202971915727 -8.535302883880162 10.168279434662077
O -2.049907318156766 -1.7764222757924037 -5.079137505105818
H -1.333908499481816 -1.5143274681104404 -4.481124662148217
H -2.4271133245493264 -2.565058833773743 -4.6611303850029175
O 14.584409895411312 2.571897235371533 6.1710641786343094
H 14.729330150028204 3.3634002149736437 6.71096093726762
H 14.02421537277479 2.009107165716933 6.726412158378731
O -4.186546219556238 -11.714908419146457 1.1435740013457174
H -4.960348521904709 -11.661053606961378 0.5628012290976425
H -4.549756156044763 -11.575115422616552 2.030985069823675
O 8.757333429860886 -0.7997433476604452 7.773468000055278
H 8.624731972039942 -0.8230636974824282 8.733072278686809
H 7.923180692318836 -1.1369189792141106 7.4136572883783
O 4.883268789258661 8.56469689867585 -4.217748072287373
H 4.65650984441122 8.577940857210864 -3.275743647990969
H 4.062648329711785 8.829562533958889 -4.659777710342545
O 2.4235300976603615 1.0124280043680258 12.1560822816894
H 2.3840265817834574 1.6879568276436894 12.849672678146247
H 3.077815949488267 0.37764626995816464 12.48460034520713
O -8.834484892529687 -1.8453905264096673 4.401891461292243
H -9.592002025220983 -2.026250179981739 4.978454498859643
H -8.233658218939057 -1.329046778243599 4.959886431100961
O 3.6968192771168127 10.366639319654197 -9.050170951754854
H 3.7797359147122847 11.324493267761348 -8.929307383193404
H 3.3668258169225345 10.050599492433296 -8.195662269447185
O -0.9753944042630391 -3.9760009911546277 -8.756776593109954
H -1.3640415971694293 -3.8932579995228274 -7.872992505404249
H -0.8380548738441793 -4.92923426968439 -8.863763108090716
O 4.9125308995935715 -5.57477807803973 -10.948639400377033
H 5.596826841944059 -5.116373531547723 -11.459101633983119
H 5.254468127638843 -5.570364139661825 -10.041985445703745
O -2.03137682633762 2.0382066348723473 -5.92076481955324
H -2.7809296555409144 1.7178169405122918 -5.396848455157921
H -1.3076018921080004 1.438676397403355 -5.684808715073439
O -8.455387099244039 -1.0761815658765843 -1.6970103785949435
H -8.407825002504534 -1.4563817208445997 -2.58704017922863
H -7.602673418273978 -1.3062109774192703 -1.2983528910046382
O -2.2931779554949943 3.6995005627194812 4.518841478218581
H -2.7916199214652617 4.528475498268586 4.4611915025806645
H -1.549051953294715 3.9138391598896067 5.101333884102617
O 2.2334300452682054 5.977909850512756 -2.6608183958215625
H 2.542477969715634 5.950744440666241 -3.578815551483065
H 1.4536653192924478 6.552258403460756 -2.6932630587184216
O 3.786374426221716 -10.29054130343104 4.357268666474784
H 3.996211184246884 -10.546372965028525 5.268029915543802
H 2.958650044134672 -9.793331821993165 4.438613753400187
O -7.277809670277979 -9.14375843104905 -5.576249812792438
H -7.991867482766608 -9.215346614351862 -6.227374938505886
H -6.518477489511616 -8.8372446958623 -6.094348175745326
O 1.874263117345314 2.809178330882621 6.416480768276477
H 0.9791798679992543 3.1483532634860256 6.265637476302399
H 2.0116652588762545 2.9264853284424044 7.368490045608489
O -5.547194426892991 5.033763658506758 6.197973269209434
H -5.657395773901551 4.986554964924426 5.236414971825571
H -5.806832680435072 5.940773287732242 6.419069298323188
O -9.329802416555166 3.7471814914771437 -8.532230275824434
H -9.461107163836518 3.9645188442704473 -9.467372455026174
H -10.204158733569333 3.8797118578929464 -8.136125899207471
O -2.2922523220704676 8.904312583665607 -7.953055473605554
H -2.453289326006609 9.710516056064394 -8.46595936455922
H -1.5581824873359484 8.474422369547485 -8.417057441099564
O 0.3459600024875973 -6.683254830830326 -7.130511961225885
H 0.6032155296340145 -6.388976500403734 -8.017183949558639
H 0.834864800338915 -6.093480905380444 -6.537131173032166
O -5.803975229551485 5.66257872433523 11.179197588199596
H -5.976634237068717 6.613049871822516 11.255097666047817
H -6.402384610154694 5.263406068460385 11.828450503717045
C -11.260342534206078 -0.3653114269804245 0.9561344740482065
O -11.325521352125193 -0.8682065980022085 -0.1281470511829661
O -11.19516371628696 0.13758374404135854 2.040415999279379