146

C -5.3564454929577465 1.0091607042253532 -0.0734429577464788
C -4.079135492957747 0.16955070422535368 -0.19788295774647868
C -4.333545492957747 -1.2789292957746463 0.3017270422535212
C -3.1403854929577464 -2.1745492957746464 0.7330270422535212
C -2.905235492957746 0.902300704225353 0.41966704225352136
C -2.7423854929577463 1.056130704225354 1.8024770422535212
C -1.8861754929577463 1.3499307042253532 -0.4326129577464788
C -1.5304554929577463 1.5279207042253526 2.3254170422535214
H -3.5237954929577464 0.7301007042253529 2.484817042253521
C -0.6776454929577462 1.8010507042253527 0.08546704225352131
H -1.9759254929577463 1.2426607042253535 -1.5115229577464788
C -0.4680254929577463 1.8513207042253539 1.4698070422535212
H -1.3950654929577464 1.5446707042253527 3.404047042253521
H 0.1461845070422536 1.9972507042253538 -0.6030529577464789
C -1.8679654929577463 -2.0866092957746467 -0.08765295774647863
C -0.6628654929577462 -1.814079295774647 0.5787970422535212
C -1.8438954929577462 -2.213429295774647 -1.4808029577464787
C 0.5129345070422537 -1.5763292957746469 -0.13022295774647863
H -0.6401854929577462 -1.7032692957746463 1.6609470422535213
C -0.6547954929577462 -1.9962392957746466 -2.1933129577464787
H -2.7578654929577464 -2.4351492957746466 -2.026182957746479
C 0.5308845070422537 -1.645769295774647 -1.5261029577464789
H 1.4044045070422537 -1.2610992957746463 0.41551704225352126
H -0.6795654929577464 -2.0467992957746466 -3.2793129577464786
C 1.7843245070422535 -1.2521692957746469 -2.2771629577464787
H 1.4981245070422535 -0.9384492957746469 -3.290282957746479
H 2.241984507042254 -0.38631929577464685 -1.8135029577464787
C 0.9385645070422537 2.0647807042253534 1.9815670422535212
H 1.0508945070422537 1.5807407042253532 2.9609770422535213
H 1.6053245070422537 1.5496207042253536 1.3096170422535214
C 3.9676945070422533 -1.6881692957746468 -3.314052957746479
H 4.795084507042254 -2.398849295774647 -3.4044129577464783
H 3.548404507042253 -1.4816192957746468 -4.303802957746479
H 4.307714507042253 -0.7637192957746466 -2.851282957746479
C 2.344694507042253 -3.565079295774647 -3.101282957746479
H 1.6334345070422536 -4.047909295774646 -2.4251929577464786
H 1.8561845070422536 -3.293109295774647 -4.041792957746479
H 3.1808045070422537 -4.243519295774647 -3.298122957746479
C 3.5156645070422536 -2.648489295774647 -1.1110629577464786
H 3.9311845070422535 -1.748249295774647 -0.6771029577464787
H 2.767184507042254 -3.1044092957746465 -0.45972295774647876
H 4.319224507042254 -3.371819295774647 -1.2863129577464787
C 2.963994507042253 3.381090704225353 2.401027042253521
H 3.3337945070422537 4.369820704225353 2.6912870422535216
H 3.120994507042253 2.671350704225353 3.2183370422535216
H 3.4665445070422534 3.0664207042253535 1.4881370422535212
C 1.2973745070422538 4.282440704225354 0.8488370422535213
H 1.7592145070422538 3.7367207042253527 0.02653704225352116
H 0.23311450704225378 4.4484607042253534 0.6605570422535213
H 1.7921845070422535 5.251370704225354 0.9736770422535213
C 0.7724845070422537 4.194670704225353 3.2772470422535216
H -0.2956954929577462 4.278220704225354 3.057857042253521
H 0.9298945070422537 3.612620704225354 4.190337042253521
H 1.2046345070422537 5.193640704225353 3.3918370422535213
N 2.876084507042253 -2.324759295774647 -2.4576629577464786
N 1.4527845070422536 3.504690704225353 2.1388470422535213
C -3.593905492957746 -3.637819295774647 0.8297870422535213
H -2.8952554929577463 -1.8680692957746468 1.7595270422535212
H -5.022615492957747 -1.2402792957746467 1.1579970422535213
H -4.898275492957747 -1.7933092957746464 -0.48931295774647876
H -3.883675492957746 0.07871070422535364 -1.2758929577464788
H -3.8751654929577466 -4.038529295774646 -0.1505529577464788
H -4.4603554929577465 -3.7321892957746465 1.4932570422535212
H -2.7953554929577464 -4.271929295774647 1.2313670422535212
H -5.648775492957746 1.147700704225353 0.9733970422535213
H -6.189795492957747 0.5254307042253537 -0.5943629577464788
H -5.2178854929577465 2.002970704225354 -0.5139729577464787
C 3.6710445070422537 1.0263707042253536 -0.27764295774647874
O 2.7356545070422538 1.6631507042253526 -0.7327029577464788
O 3.650814507042253 0.3883007042253537 0.7790570422535212
O 4.756604507042254 0.8696707042253538 -0.8334829577464786
O 3.2864929236451523 6.1328929721316605 13.915822545946192
H 2.8488393895205046 6.262369335094512 14.770610597103973
H 3.1020011705504738 5.2073100625563296 13.696229707169248
O 5.142241746264162 -4.219277588798956 -3.315271554449881
H 4.906430217969253 -4.092158510451168 -2.3840352686753046
H 4.81350011808255 -5.1073266050386215 -3.520843514980162
O 9.554552628887802 1.7160633279609874 -5.54193776620075
H 9.528950313990784 1.903022214848975 -6.492389370957939
H 8.725759097286376 1.242903786674118 -5.374059016012297
O -5.769540392425674 -0.698021751429936 -5.030346571824451
H -6.164221778147936 -0.6293929544766511 -5.912664002737556
H -5.1153199222077035 -1.4070513306699863 -5.121091138661558
O 3.5329648869954062 7.273588365049142 -11.908396129011628
H 3.6369925751869134 7.266567158936745 -12.87177367683712
H 4.390944651027505 7.58452825285276 -11.582590888132822
O -3.883428887566877 -7.228911745590557 7.027440808183541
H -4.13310785713997 -7.327168152503992 6.096326718743702
H -4.62873198835091 -6.750274937791462 7.420368331375285
O -10.869727883656047 3.3083094471739676 -4.184365016960667
H -10.16576092308538 3.870941455727165 -3.82821462979776
H -10.429361567772549 2.4621696127782187 -4.354913639892459
O 3.7277997399194747 -6.820342106343554 8.391502444487827
H 2.9907850191430185 -6.791188612587026 9.019934407440534
H 3.4442719068969154 -6.237655165653968 7.671051307108376
O 4.195684751406468 -8.986094216621233 10.97518503269647
H 4.313404957856146 -9.0811120910088 11.932306191923614
H 5.006084596295059 -9.363288195122266 10.601101167384012
O 2.6991108883377843 8.357607224248634 -10.447141205921131
H 2.0505498781315046 8.65295092776136 -11.103729410000064
H 2.498680012914061 8.89137648229108 -9.663636395696141
O -11.458492825146495 1.6875220852136255 5.569014013517723
H -11.825815743849411 2.5662407417869035 5.3904229922271
H -11.663908143011007 1.180937817956746 4.768927223441526
O -9.144322612738378 -9.538295885012449 4.983786928722894
H -8.930722292764306 -10.176421941869531 5.68102246695012
H -8.77031946411394 -9.93367248008174 4.1820632000043165
O 4.876001911024031 -5.233212571010718 8.087497562444419
H 5.656841745229777 -4.690821484825253 7.900231922659389
H 4.1566504930608215 -4.774337547272907 7.628227277792838
O 7.852163279369894 -0.2800812923742644 8.558662230842492
H 8.595914339578906 0.28460593036043313 8.299953789120643
H 7.070745209068033 0.26078767608559694 8.369430883907372
O 12.240367499209405 0.25524611761424476 4.419192983643529
H 11.49982719588828 -0.1767654129756095 4.870782901040349
H 12.180654826138028 -0.06964421348921118 3.5082360067614378
O -5.022596886063012 -5.3067418750874795 -1.595564651601086
H -4.611938147356148 -6.129446130473074 -1.2898123574246991
H -4.597099845236555 -5.13592932483892 -2.449225758379127
O 4.622206143992356 4.778177839593914 -0.30260854771506107
H 4.886305955398688 4.668071266301659 -1.22840290340804
H 5.337548620241061 4.356254065857984 0.1966182696042842
O 6.305047848075533 2.839014233930219 -4.527400648777896
H 6.652956090323533 2.8349244437240286 -3.623016612269082
H 6.122579978827995 3.7741960066885256 -4.703759580768576
O -11.056344715758213 7.423013738933463 1.2706210559125108
H -11.118102264212114 8.0261435041096 0.5147190460808513
H -10.221547008066725 6.952434936451397 1.1269884614654884
O 8.585618343211934 1.9684261759154014 11.205334557592208
H 8.422056164575501 1.7415878624616195 12.13310562319468
H 8.793743526667827 1.118200675977259 10.789687529975758
O -2.4126401490596763 3.0697239277248847 7.684975681039446
H -2.4814683235377606 3.937466334350313 7.259237316498586
H -2.4336969076714414 2.4438734408201097 6.94549632009837
O 9.083008888928665 4.275799428954982 0.9338245865680421
H 9.720496959503501 4.42629863462872 0.21973334179161386
H 9.324866589521545 3.4052024696749026 1.28386420069222
O 1.1830913762193684 -2.576694595398939 3.0433900369686824
H 1.160009078870964 -2.563413146473248 2.07475276349447
H 0.25661099365568885 -2.7024967779142304 3.297889262702372
O -4.504822661747764 -0.9820170152991601 -8.4749341533145
H -3.539873264630861 -0.9200314577445461 -8.538162379277045
H -4.8117079024263765 -0.0901284993006497 -8.697011320946846
C 6.258331250843905 9.81046212509428 -0.5781021742802483
O 7.075529592585471 10.263592655326757 0.17001402667122617
O 5.441132909102337 9.3573315948618 -1.3262183752317211