146

C -5.3564454929577465 1.0091607042253532 -0.0734429577464788
C -4.079135492957747 0.16955070422535368 -0.19788295774647868
C -4.333545492957747 -1.2789292957746463 0.3017270422535212
C -3.1403854929577464 -2.1745492957746464 0.7330270422535212
C -2.905235492957746 0.902300704225353 0.41966704225352136
C -2.7423854929577463 1.056130704225354 1.8024770422535212
C -1.8861754929577463 1.3499307042253532 -0.4326129577464788
C -1.5304554929577463 1.5279207042253526 2.3254170422535214
H -3.5237954929577464 0.7301007042253529 2.484817042253521
C -0.6776454929577462 1.8010507042253527 0.08546704225352131
H -1.9759254929577463 1.2426607042253535 -1.5115229577464788
C -0.4680254929577463 1.8513207042253539 1.4698070422535212
H -1.3950654929577464 1.5446707042253527 3.404047042253521
H 0.1461845070422536 1.9972507042253538 -0.6030529577464789
C -1.8679654929577463 -2.0866092957746467 -0.08765295774647863
C -0.6628654929577462 -1.814079295774647 0.5787970422535212
C -1.8438954929577462 -2.213429295774647 -1.4808029577464787
C 0.5129345070422537 -1.5763292957746469 -0.13022295774647863
H -0.6401854929577462 -1.7032692957746463 1.6609470422535213
C -0.6547954929577462 -1.9962392957746466 -2.1933129577464787
H -2.7578654929577464 -2.4351492957746466 -2.026182957746479
C 0.5308845070422537 -1.645769295774647 -1.5261029577464789
H 1.4044045070422537 -1.2610992957746463 0.41551704225352126
H -0.6795654929577464 -2.0467992957746466 -3.2793129577464786
C 1.7843245070422535 -1.2521692957746469 -2.2771629577464787
H 1.4981245070422535 -0.9384492957746469 -3.290282957746479
H 2.241984507042254 -0.38631929577464685 -1.8135029577464787
C 0.9385645070422537 2.0647807042253534 1.9815670422535212
H 1.0508945070422537 1.5807407042253532 2.9609770422535213
H 1.6053245070422537 1.5496207042253536 1.3096170422535214
C 3.9676945070422533 -1.6881692957746468 -3.314052957746479
H 4.795084507042254 -2.398849295774647 -3.4044129577464783
H 3.548404507042253 -1.4816192957746468 -4.303802957746479
H 4.307714507042253 -0.7637192957746466 -2.851282957746479
C 2.344694507042253 -3.565079295774647 -3.101282957746479
H 1.6334345070422536 -4.047909295774646 -2.4251929577464786
H 1.8561845070422536 -3.293109295774647 -4.041792957746479
H 3.1808045070422537 -4.243519295774647 -3.298122957746479
C 3.5156645070422536 -2.648489295774647 -1.1110629577464786
H 3.9311845070422535 -1.748249295774647 -0.6771029577464787
H 2.767184507042254 -3.1044092957746465 -0.45972295774647876
H 4.319224507042254 -3.371819295774647 -1.2863129577464787
C 2.963994507042253 3.381090704225353 2.401027042253521
H 3.3337945070422537 4.369820704225353 2.6912870422535216
H 3.120994507042253 2.671350704225353 3.2183370422535216
H 3.4665445070422534 3.0664207042253535 1.4881370422535212
C 1.2973745070422538 4.282440704225354 0.8488370422535213
H 1.7592145070422538 3.7367207042253527 0.02653704225352116
H 0.23311450704225378 4.4484607042253534 0.6605570422535213
H 1.7921845070422535 5.251370704225354 0.9736770422535213
C 0.7724845070422537 4.194670704225353 3.2772470422535216
H -0.2956954929577462 4.278220704225354 3.057857042253521
H 0.9298945070422537 3.612620704225354 4.190337042253521
H 1.2046345070422537 5.193640704225353 3.3918370422535213
N 2.876084507042253 -2.324759295774647 -2.4576629577464786
N 1.4527845070422536 3.504690704225353 2.1388470422535213
C -3.593905492957746 -3.637819295774647 0.8297870422535213
H -2.8952554929577463 -1.8680692957746468 1.7595270422535212
H -5.022615492957747 -1.2402792957746467 1.1579970422535213
H -4.898275492957747 -1.7933092957746464 -0.48931295774647876
H -3.883675492957746 0.07871070422535364 -1.2758929577464788
H -3.8751654929577466 -4.038529295774646 -0.1505529577464788
H -4.4603554929577465 -3.7321892957746465 1.4932570422535212
H -2.7953554929577464 -4.271929295774647 1.2313670422535212
H -5.648775492957746 1.147700704225353 0.9733970422535213
H -6.189795492957747 0.5254307042253537 -0.5943629577464788
H -5.2178854929577465 2.002970704225354 -0.5139729577464787
C 3.6710445070422537 1.0263707042253536 -0.27764295774647874
O 2.7356545070422538 1.6631507042253526 -0.7327029577464788
O 3.650814507042253 0.3883007042253537 0.7790570422535212
O 4.756604507042254 0.8696707042253538 -0.8334829577464786
O -9.360833287191717 -9.566180199471223 6.399888141043077
H -9.086155710151102 -10.483017923053648 6.551308662067452
H -8.840871943650269 -9.29014508692291 5.630208491992245
O 8.199031060834455 -0.8737711547112925 1.7051663649437283
H 8.83513307919798 -1.057061793935215 2.412800536466513
H 7.647743619699548 -0.16246725963256947 2.0644585446425956
O 5.6509440362988865 4.869234414974044 -14.50943194698552
H 5.2053388826476805 5.240846588890965 -15.28551686253035
H 5.548539781970464 3.91167229201736 -14.616903309097138
O -3.076060348066549 3.739096528880039 3.548945216583956
H -3.5442757393189024 2.9143774283722728 3.747892721097252
H -3.722553695195222 4.260801343269181 3.050114200044732
O 1.2676947052042313 5.108168176917757 7.462045500277998
H 1.9114747980651852 5.732777809347442 7.828620671302984
H 1.540715745059667 4.251546447291165 7.823460315176064
O 3.321978436613688 -1.6398835818567914 -7.046702251479105
H 3.714686047355457 -1.273554533156128 -6.240134760537671
H 3.227458119283665 -2.584571809845949 -6.8528156717203785
O -11.690555371188264 -6.344873579695583 3.331635744240827
H -11.38849706727447 -6.990428368826294 2.6751396268363687
H -11.209524092880185 -5.535497126467516 3.102549274650741
O -6.8549303561692705 -5.243630286716403 -10.018440348525836
H -7.788971599397307 -5.309345995269575 -9.769009479348865
H -6.3886486421463555 -5.19992900129687 -9.170128197769682
O 3.5631246659347244 -5.2536933294359685 6.285013729012179
H 3.3963444165917522 -5.342922326703678 5.334650697652217
H 3.918527103460541 -4.356937071135942 6.377096653055908
O 8.665190887216115 -5.120451366006375 4.6159924610677345
H 8.785312073116994 -5.227050213035317 5.571594336018736
H 9.476051005652735 -4.675985897102937 4.326305976085436
O 6.1033347546149095 -8.988643782943347 7.775193579672386
H 7.047918426575677 -8.966893189160146 7.990265556543372
H 5.766384863597431 -9.745951743424065 8.277101308479033
O -1.8840023957644698 -3.507777077973755 6.723737938039164
H -1.701659117877469 -3.486608891935981 7.675194817676541
H -2.4665517203346488 -4.274307689877932 6.614060913295438
O -10.068637921818604 1.3266198828808538 2.80788723242463
H -10.736377706112318 0.6497034184822548 2.9946358270578495
H -9.24062696750616 0.8273167272910369 2.744199222119357
O -1.2348668248810077 0.26527351920873565 11.850947269135633
H -0.5428308430522888 0.030786710821167684 12.487397969069708
H -0.9842531763366322 1.1510767866180664 11.548445508958556
O -1.1677835036984452 6.723077388906138 -6.561355455367195
H -2.077189292644811 6.68495947594835 -6.228946832370467
H -0.8780619423218745 5.7984125963260045 -6.557067969360107
O 3.9397907458868024 -3.188141589449324 10.861045083887358
H 3.864181658166019 -2.9904890945694715 11.806658172852293
H 3.7215507398875136 -2.3490272057411534 10.428355477893076
O 0.007266865348224627 -2.7946470914162074 4.163418417148027
H 0.3120692408889757 -3.6636724017127547 4.464844824134388
H -0.18423714604381342 -2.9270859764854937 3.2228079240945195
O 8.01148411632435 -7.38591049178051 -7.332761850942399
H 8.614629337603489 -8.059183003094947 -6.983638198841181
H 7.310635184165999 -7.3310703136897954 -6.665854605922917
O -3.6189537912004877 -0.6743675713610018 12.533749257162626
H -3.9380729700710075 0.20588627861950348 12.284182700565985
H -2.964565618177544 -0.8881296399603174 11.851808027043903
O -10.600898214618315 3.9644626120247874 0.6488228175782075
H -10.553855186493772 4.0376233889124915 1.6139144252145303
H -11.285068820255157 4.603464613747101 0.39872489979919834
O 6.467444427546908 -5.420474017173643 3.220235029337781
H 6.406271576124416 -6.3842784997658 3.2996463539968435
H 7.063646689358638 -5.163718037999603 3.939666175778464
O -4.375565552002591 -6.415765277251969 6.742707993261472
H -3.7677337885240854 -6.727601491495648 7.429924174453958
H -4.549991195784791 -7.205297777452699 6.208689201253224
O -10.102764332260666 -10.41715392793794 -7.830494749965196
H -10.872251674951245 -10.921890769374723 -7.527019368368247
H -9.365782042956416 -11.040607579293162 -7.7460874388854934
O 5.5097913821225255 8.510259774746984 -4.530731028881489
H 6.3659631456608095 8.622683751923724 -4.091074210925129
H 5.628668843535201 7.717712091822618 -5.075431188381458
C 10.661234924749072 4.023656760339197 -6.143388597473111
O 11.294138363945908 4.123070221081028 -5.132266222200883
O 10.028331485552236 3.9242432995973635 -7.154510972745337