146

C -5.3564454929577465 1.0091607042253532 -0.0734429577464788
C -4.079135492957747 0.16955070422535368 -0.19788295774647868
C -4.333545492957747 -1.2789292957746463 0.3017270422535212
C -3.1403854929577464 -2.1745492957746464 0.7330270422535212
C -2.905235492957746 0.902300704225353 0.41966704225352136
C -2.7423854929577463 1.056130704225354 1.8024770422535212
C -1.8861754929577463 1.3499307042253532 -0.4326129577464788
C -1.5304554929577463 1.5279207042253526 2.3254170422535214
H -3.5237954929577464 0.7301007042253529 2.484817042253521
C -0.6776454929577462 1.8010507042253527 0.08546704225352131
H -1.9759254929577463 1.2426607042253535 -1.5115229577464788
C -0.4680254929577463 1.8513207042253539 1.4698070422535212
H -1.3950654929577464 1.5446707042253527 3.404047042253521
H 0.1461845070422536 1.9972507042253538 -0.6030529577464789
C -1.8679654929577463 -2.0866092957746467 -0.08765295774647863
C -0.6628654929577462 -1.814079295774647 0.5787970422535212
C -1.8438954929577462 -2.213429295774647 -1.4808029577464787
C 0.5129345070422537 -1.5763292957746469 -0.13022295774647863
H -0.6401854929577462 -1.7032692957746463 1.6609470422535213
C -0.6547954929577462 -1.9962392957746466 -2.1933129577464787
H -2.7578654929577464 -2.4351492957746466 -2.026182957746479
C 0.5308845070422537 -1.645769295774647 -1.5261029577464789
H 1.4044045070422537 -1.2610992957746463 0.41551704225352126
H -0.6795654929577464 -2.0467992957746466 -3.2793129577464786
C 1.7843245070422535 -1.2521692957746469 -2.2771629577464787
H 1.4981245070422535 -0.9384492957746469 -3.290282957746479
H 2.241984507042254 -0.38631929577464685 -1.8135029577464787
C 0.9385645070422537 2.0647807042253534 1.9815670422535212
H 1.0508945070422537 1.5807407042253532 2.9609770422535213
H 1.6053245070422537 1.5496207042253536 1.3096170422535214
C 3.9676945070422533 -1.6881692957746468 -3.314052957746479
H 4.795084507042254 -2.398849295774647 -3.4044129577464783
H 3.548404507042253 -1.4816192957746468 -4.303802957746479
H 4.307714507042253 -0.7637192957746466 -2.851282957746479
C 2.344694507042253 -3.565079295774647 -3.101282957746479
H 1.6334345070422536 -4.047909295774646 -2.4251929577464786
H 1.8561845070422536 -3.293109295774647 -4.041792957746479
H 3.1808045070422537 -4.243519295774647 -3.298122957746479
C 3.5156645070422536 -2.648489295774647 -1.1110629577464786
H 3.9311845070422535 -1.748249295774647 -0.6771029577464787
H 2.767184507042254 -3.1044092957746465 -0.45972295774647876
H 4.319224507042254 -3.371819295774647 -1.2863129577464787
C 2.963994507042253 3.381090704225353 2.401027042253521
H 3.3337945070422537 4.369820704225353 2.6912870422535216
H 3.120994507042253 2.671350704225353 3.2183370422535216
H 3.4665445070422534 3.0664207042253535 1.4881370422535212
C 1.2973745070422538 4.282440704225354 0.8488370422535213
H 1.7592145070422538 3.7367207042253527 0.02653704225352116
H 0.23311450704225378 4.4484607042253534 0.6605570422535213
H 1.7921845070422535 5.251370704225354 0.9736770422535213
C 0.7724845070422537 4.194670704225353 3.2772470422535216
H -0.2956954929577462 4.278220704225354 3.057857042253521
H 0.9298945070422537 3.612620704225354 4.190337042253521
H 1.2046345070422537 5.193640704225353 3.3918370422535213
N 2.876084507042253 -2.324759295774647 -2.4576629577464786
N 1.4527845070422536 3.504690704225353 2.1388470422535213
C -3.593905492957746 -3.637819295774647 0.8297870422535213
H -2.8952554929577463 -1.8680692957746468 1.7595270422535212
H -5.022615492957747 -1.2402792957746467 1.1579970422535213
H -4.898275492957747 -1.7933092957746464 -0.48931295774647876
H -3.883675492957746 0.07871070422535364 -1.2758929577464788
H -3.8751654929577466 -4.038529295774646 -0.1505529577464788
H -4.4603554929577465 -3.7321892957746465 1.4932570422535212
H -2.7953554929577464 -4.271929295774647 1.2313670422535212
H -5.648775492957746 1.147700704225353 0.9733970422535213
H -6.189795492957747 0.5254307042253537 -0.5943629577464788
H -5.2178854929577465 2.002970704225354 -0.5139729577464787
C 3.6710445070422537 1.0263707042253536 -0.27764295774647874
O 2.7356545070422538 1.6631507042253526 -0.7327029577464788
O 3.650814507042253 0.3883007042253537 0.7790570422535212
O 4.756604507042254 0.8696707042253538 -0.8334829577464786
O -1.021395695878427 -5.326417777411055 -12.083997929590298
H -1.2244660636124456 -4.476664095302853 -12.503102286990607
H -0.07100173231650864 -5.276328761764429 -11.901777324727346
O -12.658975403200966 4.668332799293456 6.013291742346592
H -13.128750119483243 4.362921112137247 6.8038629119387455
H -11.737241001547535 4.7426802049347705 6.302843292822496
O 8.342085144977542 -8.153129869532897 2.163045898228069
H 8.814279459806635 -8.513038986581446 1.3972356649402013
H 8.985631510873528 -8.214542270430952 2.8848758894711652
O 7.839927630789738 -1.7898642710755404 -11.42793038169004
H 7.857576549958673 -1.8063391363735808 -12.396632839292776
H 6.9056907243658205 -1.9241397572438284 -11.208537034503452
O -2.542017121501306 -1.157173146478811 7.947653950358199
H -2.693573672528453 -0.21587921448989544 7.774553683629335
H -1.5890267328272842 -1.2141734141328213 8.113552210994975
O 11.24980600376467 -0.4833488650572155 7.520496143241463
H 10.460518756773546 -0.022681123090295685 7.842642430117895
H 11.87247382886127 0.2314835214254467 7.319843749473105
O 6.265197134693854 1.3011111213059077 -8.123172481203754
H 6.002614917135528 0.5567031713490975 -8.685199829260105
H 7.06913644014658 0.9887458186223363 -7.6815035382978865
O 2.850794182200599 9.516076145667014 5.681723735946405
H 3.361363351329958 10.0743455732928 5.076230774292071
H 2.8515100734242176 8.646171095271733 5.254843618001642
O -4.8316905631021285 -4.553315556686067 5.8724743009204
H -5.043959566775308 -4.926330659411396 5.003699899756088
H -3.9915026833810914 -4.092012516141177 5.730186649123388
O -3.217093609610238 -3.9430854154607933 -6.338347259859099
H -3.317376378633245 -4.8786390744765 -6.106722403163187
H -2.4309211285623866 -3.6630205936725804 -5.845946538962185
O 2.0100636608499967 -5.884285507578932 -7.364390083651857
H 1.2748378148962223 -5.654682285684402 -7.952346436485305
H 2.196791360043438 -5.060080307434926 -6.890279865759963
O -10.638583861070268 3.221342829844545 1.7907638797470047
H -10.253556085951619 2.7014741269564877 1.0693364744977487
H -10.153734656015452 4.059746750016267 1.75974679899457
O -9.59281095271237 -3.980504017188462 5.226693933134316
H -10.11933392195047 -4.7246339261685915 4.898042752814033
H -9.033175043404471 -3.7389988128575675 4.473404593242788
O -10.325726147216022 -1.2361417034561066 -4.818178526737178
H -10.859548880967006 -1.1978223461265458 -5.625973223850544
H -9.412497623132548 -1.1884204529854183 -5.138644264927445
O 6.962173090806776 1.8223453712477449 -4.708953889845149
H 6.628272943329199 0.9226470337946175 -4.574711757865165
H 7.542291060439274 1.7439205386773502 -5.481142099574987
O 1.159781714998617 0.14085046654102396 8.251450441474711
H 1.6753221100217721 0.2201071267589676 7.434808635166421
H 0.24049736503414954 0.22588733155075924 7.9570918849493015
O -6.422738647179721 -3.754696682590229 4.090185686025584
H -6.251998935878996 -3.4892969034368733 3.17400979401014
H -6.973547367612156 -3.0394375391860065 4.442288022814538
O 0.6697030704323497 -11.721732067310388 -1.3859237487076808
H 0.7822647722940281 -12.591926256440436 -0.9747555430079895
H -0.28021006086542244 -11.671188313572474 -1.5705106286481114
O 6.11724749242458 4.64815468991574 -4.1613025995504085
H 7.043922489790794 4.3698769450901 -4.214239381574673
H 5.625907610114752 3.896104192580122 -4.524575381092065
O -9.85868282323322 -1.8079624004081345 -8.56873273543523
H -10.043413235050842 -1.8354214800077315 -9.519568173772084
H -10.724057233019462 -1.9538234204396634 -8.157863366873304
O -4.527290451814317 0.24182576020886648 9.429752426408466
H -5.093296373747148 0.4688132857623857 8.676704409028394
H -5.065019942946046 0.46834458354645103 10.203379055565561
O 9.142844176658153 -6.154009710789824 -6.717027324310433
H 9.319120735682162 -7.060691531835765 -6.424073391031715
H 8.592328337029949 -5.78285081486943 -6.011240296519748
O -4.0169915042801705 1.9850798203624407 8.17812126196193
H -4.527516053213015 2.3851805407864397 8.898018098566395
H -3.119694761212268 1.9165894807556831 8.537467296530679
O -3.672807184927361 -7.437267988997257 0.6027265536370803
H -4.450173806499195 -7.162947371248379 1.1120562025324383
H -4.046406629337239 -7.864839838824632 -0.1824917043471732
C -6.947990365102154 4.971634219851476 1.661862592735406
O -6.478233930956623 6.015190655541451 2.0127715772440817
O -7.417746799247683 3.9280777841614993 1.3109536082267301