146

C -5.3564454929577465 1.0091607042253532 -0.0734429577464788
C -4.079135492957747 0.16955070422535368 -0.19788295774647868
C -4.333545492957747 -1.2789292957746463 0.3017270422535212
C -3.1403854929577464 -2.1745492957746464 0.7330270422535212
C -2.905235492957746 0.902300704225353 0.41966704225352136
C -2.7423854929577463 1.056130704225354 1.8024770422535212
C -1.8861754929577463 1.3499307042253532 -0.4326129577464788
C -1.5304554929577463 1.5279207042253526 2.3254170422535214
H -3.5237954929577464 0.7301007042253529 2.484817042253521
C -0.6776454929577462 1.8010507042253527 0.08546704225352131
H -1.9759254929577463 1.2426607042253535 -1.5115229577464788
C -0.4680254929577463 1.8513207042253539 1.4698070422535212
H -1.3950654929577464 1.5446707042253527 3.404047042253521
H 0.1461845070422536 1.9972507042253538 -0.6030529577464789
C -1.8679654929577463 -2.0866092957746467 -0.08765295774647863
C -0.6628654929577462 -1.814079295774647 0.5787970422535212
C -1.8438954929577462 -2.213429295774647 -1.4808029577464787
C 0.5129345070422537 -1.5763292957746469 -0.13022295774647863
H -0.6401854929577462 -1.7032692957746463 1.6609470422535213
C -0.6547954929577462 -1.9962392957746466 -2.1933129577464787
H -2.7578654929577464 -2.4351492957746466 -2.026182957746479
C 0.5308845070422537 -1.645769295774647 -1.5261029577464789
H 1.4044045070422537 -1.2610992957746463 0.41551704225352126
H -0.6795654929577464 -2.0467992957746466 -3.2793129577464786
C 1.7843245070422535 -1.2521692957746469 -2.2771629577464787
H 1.4981245070422535 -0.9384492957746469 -3.290282957746479
H 2.241984507042254 -0.38631929577464685 -1.8135029577464787
C 0.9385645070422537 2.0647807042253534 1.9815670422535212
H 1.0508945070422537 1.5807407042253532 2.9609770422535213
H 1.6053245070422537 1.5496207042253536 1.3096170422535214
C 3.9676945070422533 -1.6881692957746468 -3.314052957746479
H 4.795084507042254 -2.398849295774647 -3.4044129577464783
H 3.548404507042253 -1.4816192957746468 -4.303802957746479
H 4.307714507042253 -0.7637192957746466 -2.851282957746479
C 2.344694507042253 -3.565079295774647 -3.101282957746479
H 1.6334345070422536 -4.047909295774646 -2.4251929577464786
H 1.8561845070422536 -3.293109295774647 -4.041792957746479
H 3.1808045070422537 -4.243519295774647 -3.298122957746479
C 3.5156645070422536 -2.648489295774647 -1.1110629577464786
H 3.9311845070422535 -1.748249295774647 -0.6771029577464787
H 2.767184507042254 -3.1044092957746465 -0.45972295774647876
H 4.319224507042254 -3.371819295774647 -1.2863129577464787
C 2.963994507042253 3.381090704225353 2.401027042253521
H 3.3337945070422537 4.369820704225353 2.6912870422535216
H 3.120994507042253 2.671350704225353 3.2183370422535216
H 3.4665445070422534 3.0664207042253535 1.4881370422535212
C 1.2973745070422538 4.282440704225354 0.8488370422535213
H 1.7592145070422538 3.7367207042253527 0.02653704225352116
H 0.23311450704225378 4.4484607042253534 0.6605570422535213
H 1.7921845070422535 5.251370704225354 0.9736770422535213
C 0.7724845070422537 4.194670704225353 3.2772470422535216
H -0.2956954929577462 4.278220704225354 3.057857042253521
H 0.9298945070422537 3.612620704225354 4.190337042253521
H 1.2046345070422537 5.193640704225353 3.3918370422535213
N 2.876084507042253 -2.324759295774647 -2.4576629577464786
N 1.4527845070422536 3.504690704225353 2.1388470422535213
C -3.593905492957746 -3.637819295774647 0.8297870422535213
H -2.8952554929577463 -1.8680692957746468 1.7595270422535212
H -5.022615492957747 -1.2402792957746467 1.1579970422535213
H -4.898275492957747 -1.7933092957746464 -0.48931295774647876
H -3.883675492957746 0.07871070422535364 -1.2758929577464788
H -3.8751654929577466 -4.038529295774646 -0.1505529577464788
H -4.4603554929577465 -3.7321892957746465 1.4932570422535212
H -2.7953554929577464 -4.271929295774647 1.2313670422535212
H -5.648775492957746 1.147700704225353 0.9733970422535213
H -6.189795492957747 0.5254307042253537 -0.5943629577464788
H -5.2178854929577465 2.002970704225354 -0.5139729577464787
C 3.6710445070422537 1.0263707042253536 -0.27764295774647874
O 2.7356545070422538 1.6631507042253526 -0.7327029577464788
O 3.650814507042253 0.3883007042253537 0.7790570422535212
O 4.756604507042254 0.8696707042253538 -0.8334829577464786
O 2.7801237283483893 4.603932626962841 -12.62696042897581
H 2.728322550026869 5.135270821034604 -11.818280196532193
H 3.6645031312892993 4.209489983854983 -12.591604845937692
O -1.29480689292427 1.2238105088353992 -9.051203982117695
H -1.2902449689614333 1.5204165991388732 -8.128722885864416
H -1.4775864637602907 0.2741232269414131 -8.990808291925331
O -5.189348069759875 -0.7339953532068322 4.283551861989595
H -4.476892477339101 -1.0236983776519142 3.6941058989397684
H -5.204023741898972 0.22904678487772068 4.17726729480885
O 4.060822363954853 -2.150008561637588 13.195751432422458
H 3.8484875173687167 -2.2341193373169395 14.137455551156076
H 4.472059615410366 -2.998370831331095 12.971860104596225
O 0.16919872040296724 2.6513543023461073 -12.13276591092654
H -0.4013460209906121 3.0188371671218572 -12.824432303824405
H -0.3799679550911339 2.683020453421019 -11.335034651853125
O -4.3093145195060245 4.120712329940931 8.019391794814844
H -5.056702545598109 4.221290560133363 7.410899794074048
H -4.186697117363615 3.1616070156158065 8.082983563347804
O 1.8520632149828282 10.826739257094754 -5.921181188503923
H 1.6263755640127044 10.048989423317039 -6.453287979626085
H 2.7661627780856577 11.025835192414153 -6.173658398514072
O 2.0351593109956934 -1.246415376433338 -9.055915937733477
H 1.7863527942439088 -1.678811351481445 -9.88663634490068
H 1.2286336460866845 -0.7845711057030913 -8.781729567290439
O 8.771156919030016 -2.555743605011929 -4.397612839677281
H 8.482589878028605 -2.148271529404956 -5.228072307290384
H 8.73118102758552 -3.507080106110022 -4.577398084015231
O 6.278784906314242 2.930967309045042 6.655786398207104
H 6.122206383711301 3.0358540028548626 7.606285900900884
H 6.302049649904349 1.97085145878318 6.526952202119152
O 2.334376096720918 7.916134948514342 -10.381776529043812
H 2.2929922733377235 8.16333688676155 -11.317803204833028
H 1.5274730085400552 8.29648001677469 -10.003349548459425
O 0.18232959784155728 1.2768303425736662 -4.074934513322812
H 0.20916351463922722 1.2916291386678362 -3.106415905631942
H 1.1093066025027447 1.383143366718827 -4.336417051987408
O -0.5827327280782804 9.592157517429968 -7.5727158368855445
H -0.3177955253581173 9.52796228989166 -8.502583896491918
H -0.1574034972923588 8.828300758404051 -7.154888310949929
O -4.162208002225956 -2.561507450467931 -11.73627538314972
H -3.78724329864174 -3.1953633275253686 -11.106517052449961
H -4.1987489599343455 -1.7308675156393365 -11.238616864306023
O 7.433705759719123 -5.996866988754944 5.385911872771764
H 6.7247075007298065 -5.943132730957416 6.044244201606579
H 7.941001626955993 -5.1824390705020065 5.521263316630247
O -4.7807297589267295 3.7330423898512963 2.156094885270803
H -4.340709847757431 3.266020127375009 2.8822078523951276
H -4.266167377092177 3.4860240264196065 1.373043528316304
O 3.5462323677724843 -6.851333077387648 -8.35742695987997
H 3.683349901762051 -6.815179191231698 -7.398855608707589
H 2.84139051723112 -7.506944819154106 -8.468481694508327
O 7.044090871269858 2.6395212526986445 -8.510038248579209
H 6.896073839137079 3.0986175751724723 -7.669628299929377
H 6.236729319471117 2.813168776914723 -9.016966060314525
O -10.921390234900528 -2.9224525446404908 -1.9304097320472509
H -10.856344309029033 -3.5041200457275146 -1.1581408005171143
H -11.842504189360909 -3.015422156849114 -2.216535016501696
O 10.951065682702211 -8.806238270117944 -4.48812066593632
H 11.850033886919944 -8.994971468780369 -4.179570338715299
H 10.858685157705088 -9.348606812036138 -5.2857823408579545
O -5.433401149673001 5.8252512799651575 5.377067324029542
H -5.46885323696184 5.918361645715288 6.340935036009119
H -6.323830369722323 5.527171085500235 5.137806073405652
O -4.174771810650768 4.996142553157362 -1.0165286724326346
H -3.7911625981951804 5.5417662880627505 -1.719455460175924
H -3.7218013937741516 5.295828083388674 -0.21405229975578122
O -10.053708165687356 -1.6716718522081049 -4.784539351614599
H -9.824054226138294 -1.286692413786799 -3.9254600439005722
H -9.671280646330652 -2.5614223231804876 -4.752054953157771
O -2.196121569733396 -3.8197537425224777 4.4628590546842
H -2.300813870308412 -3.8209864960006517 3.4995287066627263
H -2.509883636018805 -2.943129792632977 4.731272468172497
C -8.506707549814584 9.253020018919905 8.868044983005777
O -8.740537555248906 8.761460030507116 7.801972488449146
O -8.27287754438026 9.744580007332697 9.934117477562413