146

C -5.3564454929577465 1.0091607042253532 -0.0734429577464788
C -4.079135492957747 0.16955070422535368 -0.19788295774647868
C -4.333545492957747 -1.2789292957746463 0.3017270422535212
C -3.1403854929577464 -2.1745492957746464 0.7330270422535212
C -2.905235492957746 0.902300704225353 0.41966704225352136
C -2.7423854929577463 1.056130704225354 1.8024770422535212
C -1.8861754929577463 1.3499307042253532 -0.4326129577464788
C -1.5304554929577463 1.5279207042253526 2.3254170422535214
H -3.5237954929577464 0.7301007042253529 2.484817042253521
C -0.6776454929577462 1.8010507042253527 0.08546704225352131
H -1.9759254929577463 1.2426607042253535 -1.5115229577464788
C -0.4680254929577463 1.8513207042253539 1.4698070422535212
H -1.3950654929577464 1.5446707042253527 3.404047042253521
H 0.1461845070422536 1.9972507042253538 -0.6030529577464789
C -1.8679654929577463 -2.0866092957746467 -0.08765295774647863
C -0.6628654929577462 -1.814079295774647 0.5787970422535212
C -1.8438954929577462 -2.213429295774647 -1.4808029577464787
C 0.5129345070422537 -1.5763292957746469 -0.13022295774647863
H -0.6401854929577462 -1.7032692957746463 1.6609470422535213
C -0.6547954929577462 -1.9962392957746466 -2.1933129577464787
H -2.7578654929577464 -2.4351492957746466 -2.026182957746479
C 0.5308845070422537 -1.645769295774647 -1.5261029577464789
H 1.4044045070422537 -1.2610992957746463 0.41551704225352126
H -0.6795654929577464 -2.0467992957746466 -3.2793129577464786
C 1.7843245070422535 -1.2521692957746469 -2.2771629577464787
H 1.4981245070422535 -0.9384492957746469 -3.290282957746479
H 2.241984507042254 -0.38631929577464685 -1.8135029577464787
C 0.9385645070422537 2.0647807042253534 1.9815670422535212
H 1.0508945070422537 1.5807407042253532 2.9609770422535213
H 1.6053245070422537 1.5496207042253536 1.3096170422535214
C 3.9676945070422533 -1.6881692957746468 -3.314052957746479
H 4.795084507042254 -2.398849295774647 -3.4044129577464783
H 3.548404507042253 -1.4816192957746468 -4.303802957746479
H 4.307714507042253 -0.7637192957746466 -2.851282957746479
C 2.344694507042253 -3.565079295774647 -3.101282957746479
H 1.6334345070422536 -4.047909295774646 -2.4251929577464786
H 1.8561845070422536 -3.293109295774647 -4.041792957746479
H 3.1808045070422537 -4.243519295774647 -3.298122957746479
C 3.5156645070422536 -2.648489295774647 -1.1110629577464786
H 3.9311845070422535 -1.748249295774647 -0.6771029577464787
H 2.767184507042254 -3.1044092957746465 -0.45972295774647876
H 4.319224507042254 -3.371819295774647 -1.2863129577464787
C 2.963994507042253 3.381090704225353 2.401027042253521
H 3.3337945070422537 4.369820704225353 2.6912870422535216
H 3.120994507042253 2.671350704225353 3.2183370422535216
H 3.4665445070422534 3.0664207042253535 1.4881370422535212
C 1.2973745070422538 4.282440704225354 0.8488370422535213
H 1.7592145070422538 3.7367207042253527 0.02653704225352116
H 0.23311450704225378 4.4484607042253534 0.6605570422535213
H 1.7921845070422535 5.251370704225354 0.9736770422535213
C 0.7724845070422537 4.194670704225353 3.2772470422535216
H -0.2956954929577462 4.278220704225354 3.057857042253521
H 0.9298945070422537 3.612620704225354 4.190337042253521
H 1.2046345070422537 5.193640704225353 3.3918370422535213
N 2.876084507042253 -2.324759295774647 -2.4576629577464786
N 1.4527845070422536 3.504690704225353 2.1388470422535213
C -3.593905492957746 -3.637819295774647 0.8297870422535213
H -2.8952554929577463 -1.8680692957746468 1.7595270422535212
H -5.022615492957747 -1.2402792957746467 1.1579970422535213
H -4.898275492957747 -1.7933092957746464 -0.48931295774647876
H -3.883675492957746 0.07871070422535364 -1.2758929577464788
H -3.8751654929577466 -4.038529295774646 -0.1505529577464788
H -4.4603554929577465 -3.7321892957746465 1.4932570422535212
H -2.7953554929577464 -4.271929295774647 1.2313670422535212
H -5.648775492957746 1.147700704225353 0.9733970422535213
H -6.189795492957747 0.5254307042253537 -0.5943629577464788
H -5.2178854929577465 2.002970704225354 -0.5139729577464787
C 3.6710445070422537 1.0263707042253536 -0.27764295774647874
O 2.7356545070422538 1.6631507042253526 -0.7327029577464788
O 3.650814507042253 0.3883007042253537 0.7790570422535212
O 4.756604507042254 0.8696707042253538 -0.8334829577464786
O -0.07033188742639074 0.2536048042010159 -3.680300975866949
H -0.9811434360312453 0.4653285342423749 -3.934392970950228
H 0.28638197888142514 -0.21010700430374002 -4.452757136782879
O -1.759010369500781 -12.525837096230115 6.235213123068706
H -1.902828675282338 -12.359856500754855 5.291426021150163
H -2.653140837255826 -12.54661601643856 6.608121808147395
O 7.142647029676251 2.506192645803101 -6.379990574673797
H 6.698062212275976 2.9876314097246324 -5.666177984681947
H 7.639623244958521 3.1920183578059005 -6.850755567530704
O 12.026147551602422 -4.122166039735698 4.727288770888478
H 11.327065837810398 -4.726100561705488 4.434858937398924
H 12.733502012517238 -4.711615224977212 5.029218015815209
O -2.918518965395471 -1.1338782556502112 3.5033016124061915
H -2.6392245367499294 -0.8668928055438277 4.391941442966949
H -3.813559539332826 -0.7718982950604716 3.420628621427641
O 2.9863902946105183 5.4393163519920815 -6.6648170054138225
H 2.8267639700127356 6.386498054302008 -6.792620042172242
H 2.1119934136966076 5.081574793538664 -6.449380201911394
O 11.542233289018416 -6.950389084778186 -10.937391054735883
H 12.455583786380188 -7.257518960095767 -10.835266299870003
H 11.63406483999152 -6.009339009618803 -11.149413852067665
O 7.621898487589668 -7.852833968627326 -0.8327196282237771
H 8.26210783987224 -8.580214774180456 -0.8286568874238559
H 7.8629480033289765 -7.324531998934285 -0.05699151600900243
O -3.525461086143913 -9.766800747336742 -10.829018979007959
H -4.29121630656854 -10.359874410776202 -10.799865436737246
H -3.2687941061716344 -9.67009542769506 -9.899647101423474
O -2.0403036040903997 -4.572539023053006 -10.029697907643857
H -1.6338719328686404 -4.446594786802446 -10.900283172211982
H -1.7300766792138433 -3.812782217990789 -9.514439917367834
O 5.927494426519087 -5.799798563133067 -1.8711143110877329
H 5.206996682741158 -5.537785305678445 -1.2784935124070476
H 5.472765063886676 -6.141383766886012 -2.6556541122686417
O 0.6038505558606084 -0.8605257719966309 5.361502956587656
H 0.23169542962004774 -0.036658188849564066 5.012633175218899
H 0.08052214475963693 -1.0348558473839078 6.1581825303499045
O -3.4232675021620897 -5.5845614587352195 -7.74274986496945
H -2.5378764623093257 -5.976213472576191 -7.702021944536993
H -3.276162650645386 -4.714566743698047 -8.143288630593498
O -9.004499686338402 0.3002628528700322 0.024344515094019144
H -9.863693423213768 0.3509883231045608 0.46951909442625706
H -8.914754835911573 1.1617633406399464 -0.4100800648897391
O -7.072418322069213 5.22326858037997 -2.3414401925688937
H -7.243271656468881 6.119258016420666 -2.014363098403021
H -7.676647107212219 5.129321400017229 -3.0931339113177576
O -0.39619295735731797 -12.958137710840774 0.842407323914097
H -0.5289218504871211 -12.517573631711926 -0.010384379850596925
H -0.5715994389020391 -12.26329593053099 1.4946261605540951
O -5.47016208674164 -5.82298289766455 -2.5049933293705315
H -4.905390641674369 -5.8148205799891794 -3.292352172787429
H -4.915154954889585 -6.230276701072794 -1.8230543397251224
O -5.671442177880648 -3.283898542580003 3.503068944110213
H -5.430454017952027 -2.4015219138589092 3.8229182035450524
H -4.851930816766884 -3.794442414842832 3.5849714947441353
O -0.2344280511310579 -9.821893939568488 6.74723037834151
H 0.4868105148934147 -10.33957136262109 7.135550315301461
H -0.1348370318650599 -9.960524931976021 5.793382895184133
O -10.058797523847158 5.693536195371584 6.208060764018553
H -9.747701833843967 5.921259450175949 5.319056293960754
H -9.455869043415927 4.990999263352688 6.494209415831488
O -8.691430639246589 -7.462495640585707 -1.4593622534932824
H -9.357877641574461 -6.919475403592909 -1.9065140981774795
H -8.202790003321084 -6.829655432921063 -0.9119085615838292
O -12.511679259977068 -0.6839531708787856 3.011790107742511
H -12.501521632727783 -0.6134430762352476 2.04540896861467
H -12.298251519757894 -1.613910792277112 3.180874011199066
O 5.079550147604299 -2.602657177593793 4.760286224797857
H 4.820971623429411 -2.8800687639942595 3.8685758932067538
H 5.94746199544588 -2.1904405113526204 4.634713979658952
O -0.43539928599953903 6.791366345726415 -7.94477569656001
H -0.8483779536121494 6.397075824866907 -8.727687544827265
H -1.183895637593861 7.003509384840466 -7.367098895134296
C -10.835786447612943 3.3586440920731873 -4.30737800594781
O -10.777764852499352 3.208040692184123 -3.121304497373267
O -10.893808042726535 3.5092474919622516 -5.493451514522355