146

C -5.3564454929577465 1.0091607042253532 -0.0734429577464788
C -4.079135492957747 0.16955070422535368 -0.19788295774647868
C -4.333545492957747 -1.2789292957746463 0.3017270422535212
C -3.1403854929577464 -2.1745492957746464 0.7330270422535212
C -2.905235492957746 0.902300704225353 0.41966704225352136
C -2.7423854929577463 1.056130704225354 1.8024770422535212
C -1.8861754929577463 1.3499307042253532 -0.4326129577464788
C -1.5304554929577463 1.5279207042253526 2.3254170422535214
H -3.5237954929577464 0.7301007042253529 2.484817042253521
C -0.6776454929577462 1.8010507042253527 0.08546704225352131
H -1.9759254929577463 1.2426607042253535 -1.5115229577464788
C -0.4680254929577463 1.8513207042253539 1.4698070422535212
H -1.3950654929577464 1.5446707042253527 3.404047042253521
H 0.1461845070422536 1.9972507042253538 -0.6030529577464789
C -1.8679654929577463 -2.0866092957746467 -0.08765295774647863
C -0.6628654929577462 -1.814079295774647 0.5787970422535212
C -1.8438954929577462 -2.213429295774647 -1.4808029577464787
C 0.5129345070422537 -1.5763292957746469 -0.13022295774647863
H -0.6401854929577462 -1.7032692957746463 1.6609470422535213
C -0.6547954929577462 -1.9962392957746466 -2.1933129577464787
H -2.7578654929577464 -2.4351492957746466 -2.026182957746479
C 0.5308845070422537 -1.645769295774647 -1.5261029577464789
H 1.4044045070422537 -1.2610992957746463 0.41551704225352126
H -0.6795654929577464 -2.0467992957746466 -3.2793129577464786
C 1.7843245070422535 -1.2521692957746469 -2.2771629577464787
H 1.4981245070422535 -0.9384492957746469 -3.290282957746479
H 2.241984507042254 -0.38631929577464685 -1.8135029577464787
C 0.9385645070422537 2.0647807042253534 1.9815670422535212
H 1.0508945070422537 1.5807407042253532 2.9609770422535213
H 1.6053245070422537 1.5496207042253536 1.3096170422535214
C 3.9676945070422533 -1.6881692957746468 -3.314052957746479
H 4.795084507042254 -2.398849295774647 -3.4044129577464783
H 3.548404507042253 -1.4816192957746468 -4.303802957746479
H 4.307714507042253 -0.7637192957746466 -2.851282957746479
C 2.344694507042253 -3.565079295774647 -3.101282957746479
H 1.6334345070422536 -4.047909295774646 -2.4251929577464786
H 1.8561845070422536 -3.293109295774647 -4.041792957746479
H 3.1808045070422537 -4.243519295774647 -3.298122957746479
C 3.5156645070422536 -2.648489295774647 -1.1110629577464786
H 3.9311845070422535 -1.748249295774647 -0.6771029577464787
H 2.767184507042254 -3.1044092957746465 -0.45972295774647876
H 4.319224507042254 -3.371819295774647 -1.2863129577464787
C 2.963994507042253 3.381090704225353 2.401027042253521
H 3.3337945070422537 4.369820704225353 2.6912870422535216
H 3.120994507042253 2.671350704225353 3.2183370422535216
H 3.4665445070422534 3.0664207042253535 1.4881370422535212
C 1.2973745070422538 4.282440704225354 0.8488370422535213
H 1.7592145070422538 3.7367207042253527 0.02653704225352116
H 0.23311450704225378 4.4484607042253534 0.6605570422535213
H 1.7921845070422535 5.251370704225354 0.9736770422535213
C 0.7724845070422537 4.194670704225353 3.2772470422535216
H -0.2956954929577462 4.278220704225354 3.057857042253521
H 0.9298945070422537 3.612620704225354 4.190337042253521
H 1.2046345070422537 5.193640704225353 3.3918370422535213
N 2.876084507042253 -2.324759295774647 -2.4576629577464786
N 1.4527845070422536 3.504690704225353 2.1388470422535213
C -3.593905492957746 -3.637819295774647 0.8297870422535213
H -2.8952554929577463 -1.8680692957746468 1.7595270422535212
H -5.022615492957747 -1.2402792957746467 1.1579970422535213
H -4.898275492957747 -1.7933092957746464 -0.48931295774647876
H -3.883675492957746 0.07871070422535364 -1.2758929577464788
H -3.8751654929577466 -4.038529295774646 -0.1505529577464788
H -4.4603554929577465 -3.7321892957746465 1.4932570422535212
H -2.7953554929577464 -4.271929295774647 1.2313670422535212
H -5.648775492957746 1.147700704225353 0.9733970422535213
H -6.189795492957747 0.5254307042253537 -0.5943629577464788
H -5.2178854929577465 2.002970704225354 -0.5139729577464787
C 3.6710445070422537 1.0263707042253536 -0.27764295774647874
O 2.7356545070422538 1.6631507042253526 -0.7327029577464788
O 3.650814507042253 0.3883007042253537 0.7790570422535212
O 4.756604507042254 0.8696707042253538 -0.8334829577464786
O 6.935296003228462 12.052538716958399 -3.63878183807098
H 6.7238409388409615 11.392502715436725 -4.315986821322108
H 6.103985025053657 12.534550893174385 -3.514089160476917
O 5.469219497392572 8.15853742228033 6.024275541174697
H 5.548319638253155 9.064194560516416 6.359679286797588
H 5.810777708057317 7.610669336916835 6.746868437671495
O -5.889430605967994 4.7684829745649395 -14.808115206137506
H -6.772289711267586 4.62857713968612 -15.18221882073708
H -5.773490868200394 4.025098720416626 -14.197460007035152
O 7.7808268196488335 4.144900785206629 -0.6170746485337966
H 7.9133019543389045 3.497478444744592 -1.3257791064423845
H 7.6974191505735705 3.6033196807003454 0.18210931794775442
O -2.6903478326515073 -10.887382771080796 -4.05446495558958
H -2.7620530070665597 -11.60463529653755 -3.406873618720395
H -1.9385662498339613 -10.362808268469252 -3.740445868198072
O 5.131766829691746 -5.145597074426262 -1.5171041153895592
H 4.801019170883002 -5.801409649716119 -2.1491509563627758
H 4.9087410257705315 -4.294988191620792 -1.9241495226572565
O 5.343985777828281 -5.50588385759027 -4.706424302832537
H 5.565999274624293 -5.528816895683628 -5.6493725728368975
H 4.549698557420905 -6.056875941057644 -4.639510330048032
O -3.1229991042935135 -3.3868639129946696 9.611086111931947
H -3.165608997041815 -3.0738333599210055 10.527144858291795
H -2.611569425827735 -4.207947187509763 9.667865373955706
O -7.242549449211514 4.698280048349296 -6.161846878952862
H -6.971216938420248 3.774074804071314 -6.056060812116137
H -6.507120888979603 5.104314348020271 -6.644799179481517
O -8.67495334291887 -1.3364595302485478 -1.5169967595898175
H -7.8368474801341526 -0.8501280403404678 -1.5222504810967243
H -8.82185466692327 -1.5395442865730928 -0.5809740424219304
O -2.432941160858306 -2.3707947100497724 3.864041931231421
H -2.354665304631549 -3.180432945684233 4.390659605289829
H -1.6832739825815117 -1.8295982252199068 4.153985772211544
O -1.9856398700772002 3.597343329441364 8.054043721450261
H -1.0341440256800618 3.6275957833694545 8.234896711545275
H -2.074172185434967 4.032758077401592 7.192917731425503
O 2.4906672802925556 -11.612708036695047 6.950689196365396
H 2.549862737728475 -11.187547179676367 7.819424772002824
H 2.463350067845262 -10.870547767792551 6.328263418086021
O -9.759501176275629 -10.824343135947736 3.473058891872303
H -10.105391221144332 -11.181372043988523 4.304838786185655
H -10.319046820773742 -11.22973023375091 2.7936974880834886
O -4.916833366370957 3.298669254745955 -10.561494181874032
H -4.49654536495961 4.167660586788621 -10.476762737861964
H -5.753947412793087 3.395909743498596 -10.083219883035055
O 0.8940450626531845 8.092916003955427 8.54705859144891
H 0.8184254204662249 7.127525830845668 8.511409744642503
H 1.203102549258546 8.336341730995924 7.661513940012302
O -3.0325020603853035 -9.530539848300736 -7.141619528923588
H -2.9576888070355762 -9.526352415685944 -6.175517671233972
H -2.227445667896692 -9.08174564359615 -7.440667871230985
O -0.41240720511106677 10.869526196065074 2.9883065646209634
H -0.27926509845244984 11.602814496876258 2.3690095403846514
H -1.1889273968901266 11.135968756616107 3.503075151450445
O 4.9243265047685885 -8.629602210677447 0.368532994850876
H 4.071649195269913 -8.185980162433118 0.24561740968118695
H 5.511562391505954 -7.925343041726203 0.68179802733277
O -2.0488098029033397 6.1140015659179525 -6.333726255607931
H -2.381070464789203 6.827490805819904 -5.768480013685613
H -1.837385065816036 5.401758548171258 -5.711655995493652
O 6.417354775218825 8.380327905691518 -5.007453366735519
H 6.210787105115204 8.94846600675576 -4.250144808295118
H 6.834085742604622 7.601523703829444 -4.609004800062636
O -3.992777882628072 4.603392435921593 4.5707956141442745
H -4.708962036210498 4.555459310555971 5.221756465924248
H -4.347955427200353 4.139916389190682 3.7974904930967726
O 6.8847997503342455 3.3917084257367995 9.963712406086776
H 6.841225831679919 3.42706133415995 10.931089707029448
H 6.786100698244294 2.4496828609891086 9.759241682562992
O -8.638034973425349 0.4625705029907792 -5.852465105103593
H -9.301242820527484 -0.23479088074487642 -5.965645531487492
H -8.582633272142536 0.8769864729889996 -6.726622985354869
C -5.11259675513073 -10.852421791366883 -5.147609197652448
O -5.581565037673231 -9.75111261309888 -5.1498677661800825
O -4.64362847258823 -11.953730969634883 -5.145350629124815