146

C -5.3564454929577465 1.0091607042253532 -0.0734429577464788
C -4.079135492957747 0.16955070422535368 -0.19788295774647868
C -4.333545492957747 -1.2789292957746463 0.3017270422535212
C -3.1403854929577464 -2.1745492957746464 0.7330270422535212
C -2.905235492957746 0.902300704225353 0.41966704225352136
C -2.7423854929577463 1.056130704225354 1.8024770422535212
C -1.8861754929577463 1.3499307042253532 -0.4326129577464788
C -1.5304554929577463 1.5279207042253526 2.3254170422535214
H -3.5237954929577464 0.7301007042253529 2.484817042253521
C -0.6776454929577462 1.8010507042253527 0.08546704225352131
H -1.9759254929577463 1.2426607042253535 -1.5115229577464788
C -0.4680254929577463 1.8513207042253539 1.4698070422535212
H -1.3950654929577464 1.5446707042253527 3.404047042253521
H 0.1461845070422536 1.9972507042253538 -0.6030529577464789
C -1.8679654929577463 -2.0866092957746467 -0.08765295774647863
C -0.6628654929577462 -1.814079295774647 0.5787970422535212
C -1.8438954929577462 -2.213429295774647 -1.4808029577464787
C 0.5129345070422537 -1.5763292957746469 -0.13022295774647863
H -0.6401854929577462 -1.7032692957746463 1.6609470422535213
C -0.6547954929577462 -1.9962392957746466 -2.1933129577464787
H -2.7578654929577464 -2.4351492957746466 -2.026182957746479
C 0.5308845070422537 -1.645769295774647 -1.5261029577464789
H 1.4044045070422537 -1.2610992957746463 0.41551704225352126
H -0.6795654929577464 -2.0467992957746466 -3.2793129577464786
C 1.7843245070422535 -1.2521692957746469 -2.2771629577464787
H 1.4981245070422535 -0.9384492957746469 -3.290282957746479
H 2.241984507042254 -0.38631929577464685 -1.8135029577464787
C 0.9385645070422537 2.0647807042253534 1.9815670422535212
H 1.0508945070422537 1.5807407042253532 2.9609770422535213
H 1.6053245070422537 1.5496207042253536 1.3096170422535214
C 3.9676945070422533 -1.6881692957746468 -3.314052957746479
H 4.795084507042254 -2.398849295774647 -3.4044129577464783
H 3.548404507042253 -1.4816192957746468 -4.303802957746479
H 4.307714507042253 -0.7637192957746466 -2.851282957746479
C 2.344694507042253 -3.565079295774647 -3.101282957746479
H 1.6334345070422536 -4.047909295774646 -2.4251929577464786
H 1.8561845070422536 -3.293109295774647 -4.041792957746479
H 3.1808045070422537 -4.243519295774647 -3.298122957746479
C 3.5156645070422536 -2.648489295774647 -1.1110629577464786
H 3.9311845070422535 -1.748249295774647 -0.6771029577464787
H 2.767184507042254 -3.1044092957746465 -0.45972295774647876
H 4.319224507042254 -3.371819295774647 -1.2863129577464787
C 2.963994507042253 3.381090704225353 2.401027042253521
H 3.3337945070422537 4.369820704225353 2.6912870422535216
H 3.120994507042253 2.671350704225353 3.2183370422535216
H 3.4665445070422534 3.0664207042253535 1.4881370422535212
C 1.2973745070422538 4.282440704225354 0.8488370422535213
H 1.7592145070422538 3.7367207042253527 0.02653704225352116
H 0.23311450704225378 4.4484607042253534 0.6605570422535213
H 1.7921845070422535 5.251370704225354 0.9736770422535213
C 0.7724845070422537 4.194670704225353 3.2772470422535216
H -0.2956954929577462 4.278220704225354 3.057857042253521
H 0.9298945070422537 3.612620704225354 4.190337042253521
H 1.2046345070422537 5.193640704225353 3.3918370422535213
N 2.876084507042253 -2.324759295774647 -2.4576629577464786
N 1.4527845070422536 3.504690704225353 2.1388470422535213
C -3.593905492957746 -3.637819295774647 0.8297870422535213
H -2.8952554929577463 -1.8680692957746468 1.7595270422535212
H -5.022615492957747 -1.2402792957746467 1.1579970422535213
H -4.898275492957747 -1.7933092957746464 -0.48931295774647876
H -3.883675492957746 0.07871070422535364 -1.2758929577464788
H -3.8751654929577466 -4.038529295774646 -0.1505529577464788
H -4.4603554929577465 -3.7321892957746465 1.4932570422535212
H -2.7953554929577464 -4.271929295774647 1.2313670422535212
H -5.648775492957746 1.147700704225353 0.9733970422535213
H -6.189795492957747 0.5254307042253537 -0.5943629577464788
H -5.2178854929577465 2.002970704225354 -0.5139729577464787
C 3.6710445070422537 1.0263707042253536 -0.27764295774647874
O 2.7356545070422538 1.6631507042253526 -0.7327029577464788
O 3.650814507042253 0.3883007042253537 0.7790570422535212
O 4.756604507042254 0.8696707042253538 -0.8334829577464786
O -7.97673217229643 -1.6141375642477678 1.6116963435189677
H -7.802340968933387 -2.4767850616597915 1.2062405995735115
H -8.935404042059032 -1.6113332666522573 1.752771948571266
O 7.399236700461741 2.41787500178466 -10.691147025531386
H 6.884435639807609 3.1716670668879745 -10.365962850890826
H 7.069147092158172 1.6682204301583567 -10.17343975493363
O 2.3109756861692583 6.469113129153277 10.62611866966391
H 2.8759925100156964 5.714995834674693 10.400219462408142
H 2.6538728679342336 7.190945377608684 10.078084298362755
O -3.795605040276009 8.091173295620425 0.4170361030806038
H -3.8378224288656577 9.049676387530413 0.2811800329193259
H -4.724694937029566 7.82127074087164 0.4709482444825297
O 8.400036526348872 6.982241513867176 -2.867416726828714
H 8.531973852567122 6.865205071466279 -3.820234846933764
H 9.194933820035684 6.594323708487632 -2.471664262453697
O 1.9517172048537805 6.437381225065938 -7.920628156545295
H 1.9700061303773833 6.453730842603117 -8.889320864327068
H 2.881520841979086 6.538468665171681 -7.667234253419312
O 8.292409405335388 5.079671501488305 10.21508204651499
H 8.254154932606184 6.047918090525636 10.216661614109855
H 7.441636626363224 4.811200319113813 10.593329118009835
O -4.6174031942677605 3.1965506058994717 11.07269469889808
H -4.253188338906648 2.794887210112197 11.8758020469649
H -5.501597229022164 2.807468468317526 10.99668191431947
O 8.107609107712754 -6.97987370691375 3.7637260656389655
H 8.89876357963798 -7.388670128065227 3.3817215571492585
H 7.50151469277796 -7.7238441426627285 3.8983347400114727
O 2.276450924349712 3.9003567979155216 6.116015869643594
H 1.3422289953209878 3.7028217228140763 6.280869253978025
H 2.2888870875787113 4.855924626892584 5.955711751267913
O 3.8932999262791483 -2.9648512364722923 2.130694001529453
H 3.6318744053717116 -3.2621787031542664 3.015126266586962
H 3.1838354648558638 -3.288795437250407 1.5556441975475757
O 7.795129413266322 -9.448163120575378 4.9381035270197895
H 7.595763770063213 -9.732747344397074 5.84266558501361
H 7.082513880909496 -9.8360222332215 4.408286241456963
O 12.267752634799535 1.6659746481876034 -6.359841515763333
H 11.850183525878474 0.8373460497650571 -6.639087002837267
H 13.000779905212223 1.3797440658454887 -5.794416879880335
O -3.684156626674911 -7.381622099879388 6.403661707241281
H -2.9943185777966774 -7.655489679993921 5.780695117621836
H -3.645120117703154 -8.049554247195799 7.10459304613874
O -2.273016076498019 6.751617742833122 3.1435381908663897
H -2.9886954290198755 7.024662105290936 2.5500592970513676
H -2.3961987130066804 5.794746498150488 3.2340114104525313
O 8.450226197877324 -8.447863510411233 -6.72472774006193
H 8.750023779434658 -9.328156137193597 -6.997076153358181
H 8.550174736645836 -7.908953244989756 -7.52381969955182
O -2.6834846194015074 9.781435569476292 -8.595253063479728
H -2.7194034945277767 8.820246632468665 -8.71269674651042
H -2.460409176687147 9.894676065399409 -7.659103566208657
O 11.65057481377718 5.638654299752459 -5.027331830827124
H 12.254963784467781 5.892889198555187 -4.313857272599346
H 11.216291053523541 6.46923327367691 -5.273295502849175
O -3.4173318192354643 4.332363498203763 -0.6642793799593709
H -3.156159935815364 3.469360975043082 -0.3093381887331397
H -3.4685928940487956 4.901513903466639 0.11828183981713036
O 2.720879129331086 -9.469484199989049 9.936985207424717
H 2.391167638124475 -9.497271896938592 10.847746171324989
H 3.203062240772108 -8.630393320637031 9.888119191326501
O 7.065209071702506 -1.721895371032185 4.705226280256941
H 7.1065508291579285 -0.9290570556270059 5.260803117081494
H 6.116835369293223 -1.8549117589912028 4.5573888512585805
O 8.483240641084759 0.4830247811440288 1.2011406139374647
H 8.413938738108174 1.1131498051679283 1.9340164951361196
H 7.741326531816832 -0.12386236761945546 1.3433144070039316
O 7.015200788593275 1.1441825724068602 -4.948723643530678
H 7.033921104701855 0.36464012913144556 -5.523989222022034
H 7.87094320664833 1.1206483480409204 -4.494726949132161
O -6.802990309484359 8.199118134168197 -6.379755322222334
H -6.3326398928952825 8.814868300227428 -5.797870818637203
H -7.694126442588579 8.154343122632122 -6.001822080871429
C 9.09058253577558 -1.0828675338388096 -4.069814198353758
O 8.819405288689325 -1.6933013608200391 -5.063117626737942
O 9.361759782861833 -0.4724337068575801 -3.076510769969576