146

C -5.3564454929577465 1.0091607042253532 -0.0734429577464788
C -4.079135492957747 0.16955070422535368 -0.19788295774647868
C -4.333545492957747 -1.2789292957746463 0.3017270422535212
C -3.1403854929577464 -2.1745492957746464 0.7330270422535212
C -2.905235492957746 0.902300704225353 0.41966704225352136
C -2.7423854929577463 1.056130704225354 1.8024770422535212
C -1.8861754929577463 1.3499307042253532 -0.4326129577464788
C -1.5304554929577463 1.5279207042253526 2.3254170422535214
H -3.5237954929577464 0.7301007042253529 2.484817042253521
C -0.6776454929577462 1.8010507042253527 0.08546704225352131
H -1.9759254929577463 1.2426607042253535 -1.5115229577464788
C -0.4680254929577463 1.8513207042253539 1.4698070422535212
H -1.3950654929577464 1.5446707042253527 3.404047042253521
H 0.1461845070422536 1.9972507042253538 -0.6030529577464789
C -1.8679654929577463 -2.0866092957746467 -0.08765295774647863
C -0.6628654929577462 -1.814079295774647 0.5787970422535212
C -1.8438954929577462 -2.213429295774647 -1.4808029577464787
C 0.5129345070422537 -1.5763292957746469 -0.13022295774647863
H -0.6401854929577462 -1.7032692957746463 1.6609470422535213
C -0.6547954929577462 -1.9962392957746466 -2.1933129577464787
H -2.7578654929577464 -2.4351492957746466 -2.026182957746479
C 0.5308845070422537 -1.645769295774647 -1.5261029577464789
H 1.4044045070422537 -1.2610992957746463 0.41551704225352126
H -0.6795654929577464 -2.0467992957746466 -3.2793129577464786
C 1.7843245070422535 -1.2521692957746469 -2.2771629577464787
H 1.4981245070422535 -0.9384492957746469 -3.290282957746479
H 2.241984507042254 -0.38631929577464685 -1.8135029577464787
C 0.9385645070422537 2.0647807042253534 1.9815670422535212
H 1.0508945070422537 1.5807407042253532 2.9609770422535213
H 1.6053245070422537 1.5496207042253536 1.3096170422535214
C 3.9676945070422533 -1.6881692957746468 -3.314052957746479
H 4.795084507042254 -2.398849295774647 -3.4044129577464783
H 3.548404507042253 -1.4816192957746468 -4.303802957746479
H 4.307714507042253 -0.7637192957746466 -2.851282957746479
C 2.344694507042253 -3.565079295774647 -3.101282957746479
H 1.6334345070422536 -4.047909295774646 -2.4251929577464786
H 1.8561845070422536 -3.293109295774647 -4.041792957746479
H 3.1808045070422537 -4.243519295774647 -3.298122957746479
C 3.5156645070422536 -2.648489295774647 -1.1110629577464786
H 3.9311845070422535 -1.748249295774647 -0.6771029577464787
H 2.767184507042254 -3.1044092957746465 -0.45972295774647876
H 4.319224507042254 -3.371819295774647 -1.2863129577464787
C 2.963994507042253 3.381090704225353 2.401027042253521
H 3.3337945070422537 4.369820704225353 2.6912870422535216
H 3.120994507042253 2.671350704225353 3.2183370422535216
H 3.4665445070422534 3.0664207042253535 1.4881370422535212
C 1.2973745070422538 4.282440704225354 0.8488370422535213
H 1.7592145070422538 3.7367207042253527 0.02653704225352116
H 0.23311450704225378 4.4484607042253534 0.6605570422535213
H 1.7921845070422535 5.251370704225354 0.9736770422535213
C 0.7724845070422537 4.194670704225353 3.2772470422535216
H -0.2956954929577462 4.278220704225354 3.057857042253521
H 0.9298945070422537 3.612620704225354 4.190337042253521
H 1.2046345070422537 5.193640704225353 3.3918370422535213
N 2.876084507042253 -2.324759295774647 -2.4576629577464786
N 1.4527845070422536 3.504690704225353 2.1388470422535213
C -3.593905492957746 -3.637819295774647 0.8297870422535213
H -2.8952554929577463 -1.8680692957746468 1.7595270422535212
H -5.022615492957747 -1.2402792957746467 1.1579970422535213
H -4.898275492957747 -1.7933092957746464 -0.48931295774647876
H -3.883675492957746 0.07871070422535364 -1.2758929577464788
H -3.8751654929577466 -4.038529295774646 -0.1505529577464788
H -4.4603554929577465 -3.7321892957746465 1.4932570422535212
H -2.7953554929577464 -4.271929295774647 1.2313670422535212
H -5.648775492957746 1.147700704225353 0.9733970422535213
H -6.189795492957747 0.5254307042253537 -0.5943629577464788
H -5.2178854929577465 2.002970704225354 -0.5139729577464787
C 3.6710445070422537 1.0263707042253536 -0.27764295774647874
O 2.7356545070422538 1.6631507042253526 -0.7327029577464788
O 3.650814507042253 0.3883007042253537 0.7790570422535212
O 4.756604507042254 0.8696707042253538 -0.8334829577464786
O -10.973385369247367 0.7026933213008277 -5.572790955032473
H -10.91451721907982 1.4123673983246785 -6.2299550153676355
H -10.254638609408104 0.09949087287019664 -5.8146831742704
O 8.671582879675448 -9.69588473883461 -0.9318124214700713
H 8.93188333132768 -9.64110162194567 -1.863590207143017
H 8.98400638008426 -8.860945734754129 -0.5520356973841997
O 8.51545166727384 -1.5227445945767473 3.314038036461464
H 8.535030965176148 -0.9355506827399553 4.084614001500252
H 8.073768506704532 -2.3214417368932105 3.639554249306573
O 4.506108067303801 -11.398757884549891 3.266419140355689
H 4.510897630469907 -12.071871184772597 3.9634578064625066
H 5.244469617146924 -11.651395342670263 2.6919990146917847
O 9.047762124312074 5.34195925056398 -8.272238290471714
H 9.296157837617681 5.790531381530267 -7.450015711219743
H 9.392008766762618 4.442949616529899 -8.161613377475433
O -10.271135825641508 -10.705236331898494 2.0923884749972874
H -10.435704988589737 -11.357140325247805 2.7901746392064553
H -11.060997975092253 -10.75626989360656 1.5333935691667966
O 8.88333791253172 -3.5963806810300794 6.832686276924742
H 9.780224649087142 -3.9515516417938374 6.740952273844559
H 8.9992283355587 -2.6394840940566078 6.733286699515434
O -9.173230612209696 -6.556518319432763 0.2583006493997928
H -9.6710584578997 -6.822717455319964 -0.5292733553823341
H -9.85502034778043 -6.43433365423909 0.9359403828584325
O -2.0209550637214377 -0.916920154125886 3.5483338350523006
H -1.6214330932577297 -1.650994743652907 3.05794210487373
H -2.879076964477448 -1.2653422339563878 3.833273832296421
O 5.142937815871509 1.249175691070044 -14.431137231997822
H 5.524646636242189 0.6772565696127133 -15.113906777205209
H 4.976319732184512 0.6486838733383586 -13.689106278919873
O 6.397827416681713 13.798452364016425 0.23265532958849544
H 5.939419863726463 14.652167250334978 0.23178058866766182
H 6.786915565587145 13.740802343152943 -0.6529229175335658
O -4.1367603853852675 -2.440621446424444 -7.042209464731583
H -5.068550672356138 -2.2973005108574345 -7.266248138703159
H -3.718298579452786 -2.6346316891729717 -7.894390013080571
O -4.980207361572163 10.73278390051593 2.7196867104580686
H -5.6604440409783425 11.42252880780434 2.6973846979892215
H -4.88835756816312 10.525004171405344 3.661680948190682
O -2.6249039072993643 2.589372398700998 7.76887674293787
H -2.5444682164559014 3.554634091441087 7.79657730370971
H -1.9698139362137 2.31878021543441 7.108120400222944
O -8.669997702743695 -2.994759531700348 9.830215847044657
H -8.744640761078948 -2.8424384627612582 10.784256759531965
H -8.977378289830613 -2.164697494541218 9.435911226922935
O 6.031749925095486 -9.78325116815358 0.054294011743236226
H 5.787937017211961 -10.1184293338898 -0.8215930928901656
H 5.256184192737804 -9.975203035122744 0.6025769859997294
O 0.8589120114900715 0.599397357407668 5.125701772364933
H 0.28863856834114693 0.9609070637381115 4.43067206856232
H 0.24967093060455836 0.4161634712604825 5.8566002554861205
O -10.146508292960528 -6.471454507572611 5.494380203876654
H -11.003423583290848 -6.53885964521637 5.047032364363227
H -9.625440902732851 -7.193438822478367 5.112033021107663
O -0.250103656662491 1.3507229950799728 -9.82099241408088
H -1.1666773241506068 1.6006994620106707 -10.011706427588624
H -0.31016840734154716 0.8581973914274608 -8.988662731940087
O 3.18339334774282 14.627326998836558 -1.766176551466227
H 3.938685019139246 15.182767324330966 -1.5212522920841396
H 2.78753219674599 15.08974533946598 -2.520116318079581
O 13.348470147878679 3.767295292719086 4.452515700925783
H 13.57069168061981 3.7550685640898243 5.395614558094644
H 12.391119258750301 3.618440554074046 4.435678653440572
O -1.6539103542327362 -5.0192462239161175 10.955981634643232
H -1.639485173777124 -5.0416392245771595 11.92461873107833
H -0.980674122457206 -5.666213782314907 10.696852518362961
O 5.6928788281322085 -0.9518020030912684 1.1074697480931013
H 6.185277917048266 -1.492804780196895 0.47199631096245503
H 4.764112525098344 -1.136791192962432 0.9022038272011556
O -4.9370784915961705 -9.714183934806437 2.037335662927238
H -4.058375648823963 -9.548170248690358 2.410548908975924
H -4.831515200453075 -9.518717842142744 1.0941435602875758
C -0.5792826473529917 -6.965469820271474 0.08678257494668773
O -0.7647230889169174 -7.3979379763271504 -1.0138542379622664
O -0.39384220578906604 -6.533001664215799 1.1874193878556418