146

C -5.3564454929577465 1.0091607042253532 -0.0734429577464788
C -4.079135492957747 0.16955070422535368 -0.19788295774647868
C -4.333545492957747 -1.2789292957746463 0.3017270422535212
C -3.1403854929577464 -2.1745492957746464 0.7330270422535212
C -2.905235492957746 0.902300704225353 0.41966704225352136
C -2.7423854929577463 1.056130704225354 1.8024770422535212
C -1.8861754929577463 1.3499307042253532 -0.4326129577464788
C -1.5304554929577463 1.5279207042253526 2.3254170422535214
H -3.5237954929577464 0.7301007042253529 2.484817042253521
C -0.6776454929577462 1.8010507042253527 0.08546704225352131
H -1.9759254929577463 1.2426607042253535 -1.5115229577464788
C -0.4680254929577463 1.8513207042253539 1.4698070422535212
H -1.3950654929577464 1.5446707042253527 3.404047042253521
H 0.1461845070422536 1.9972507042253538 -0.6030529577464789
C -1.8679654929577463 -2.0866092957746467 -0.08765295774647863
C -0.6628654929577462 -1.814079295774647 0.5787970422535212
C -1.8438954929577462 -2.213429295774647 -1.4808029577464787
C 0.5129345070422537 -1.5763292957746469 -0.13022295774647863
H -0.6401854929577462 -1.7032692957746463 1.6609470422535213
C -0.6547954929577462 -1.9962392957746466 -2.1933129577464787
H -2.7578654929577464 -2.4351492957746466 -2.026182957746479
C 0.5308845070422537 -1.645769295774647 -1.5261029577464789
H 1.4044045070422537 -1.2610992957746463 0.41551704225352126
H -0.6795654929577464 -2.0467992957746466 -3.2793129577464786
C 1.7843245070422535 -1.2521692957746469 -2.2771629577464787
H 1.4981245070422535 -0.9384492957746469 -3.290282957746479
H 2.241984507042254 -0.38631929577464685 -1.8135029577464787
C 0.9385645070422537 2.0647807042253534 1.9815670422535212
H 1.0508945070422537 1.5807407042253532 2.9609770422535213
H 1.6053245070422537 1.5496207042253536 1.3096170422535214
C 3.9676945070422533 -1.6881692957746468 -3.314052957746479
H 4.795084507042254 -2.398849295774647 -3.4044129577464783
H 3.548404507042253 -1.4816192957746468 -4.303802957746479
H 4.307714507042253 -0.7637192957746466 -2.851282957746479
C 2.344694507042253 -3.565079295774647 -3.101282957746479
H 1.6334345070422536 -4.047909295774646 -2.4251929577464786
H 1.8561845070422536 -3.293109295774647 -4.041792957746479
H 3.1808045070422537 -4.243519295774647 -3.298122957746479
C 3.5156645070422536 -2.648489295774647 -1.1110629577464786
H 3.9311845070422535 -1.748249295774647 -0.6771029577464787
H 2.767184507042254 -3.1044092957746465 -0.45972295774647876
H 4.319224507042254 -3.371819295774647 -1.2863129577464787
C 2.963994507042253 3.381090704225353 2.401027042253521
H 3.3337945070422537 4.369820704225353 2.6912870422535216
H 3.120994507042253 2.671350704225353 3.2183370422535216
H 3.4665445070422534 3.0664207042253535 1.4881370422535212
C 1.2973745070422538 4.282440704225354 0.8488370422535213
H 1.7592145070422538 3.7367207042253527 0.02653704225352116
H 0.23311450704225378 4.4484607042253534 0.6605570422535213
H 1.7921845070422535 5.251370704225354 0.9736770422535213
C 0.7724845070422537 4.194670704225353 3.2772470422535216
H -0.2956954929577462 4.278220704225354 3.057857042253521
H 0.9298945070422537 3.612620704225354 4.190337042253521
H 1.2046345070422537 5.193640704225353 3.3918370422535213
N 2.876084507042253 -2.324759295774647 -2.4576629577464786
N 1.4527845070422536 3.504690704225353 2.1388470422535213
C -3.593905492957746 -3.637819295774647 0.8297870422535213
H -2.8952554929577463 -1.8680692957746468 1.7595270422535212
H -5.022615492957747 -1.2402792957746467 1.1579970422535213
H -4.898275492957747 -1.7933092957746464 -0.48931295774647876
H -3.883675492957746 0.07871070422535364 -1.2758929577464788
H -3.8751654929577466 -4.038529295774646 -0.1505529577464788
H -4.4603554929577465 -3.7321892957746465 1.4932570422535212
H -2.7953554929577464 -4.271929295774647 1.2313670422535212
H -5.648775492957746 1.147700704225353 0.9733970422535213
H -6.189795492957747 0.5254307042253537 -0.5943629577464788
H -5.2178854929577465 2.002970704225354 -0.5139729577464787
C 3.6710445070422537 1.0263707042253536 -0.27764295774647874
O 2.7356545070422538 1.6631507042253526 -0.7327029577464788
O 3.650814507042253 0.3883007042253537 0.7790570422535212
O 4.756604507042254 0.8696707042253538 -0.8334829577464786
O -6.725607335697237 3.076000901768116 -4.787378723548927
H -7.143677253811116 2.9769848017048828 -3.9188277967769136
H -7.455189714922451 2.9549271751267514 -5.41348785855755
O -1.64078575798098 -7.891203159396835 0.4660800673183725
H -1.5538232545872148 -7.846515847837347 -0.4979779828472158
H -2.5973657028596127 -7.940144440130386 0.6127821613598371
O 5.426259887572957 5.191804108104268 -2.1595116695725185
H 5.593448840021322 5.904907493824211 -2.7939395790736463
H 6.267199880034673 5.096424217187833 -1.6876170311337466
O 0.5426976363749156 2.0892566731167723 -7.951475389310298
H 0.7130660919902316 2.9257958135244304 -8.409890280862992
H 0.7645176924147233 2.279266865392799 -7.027541444772202
O -6.816501413207324 -0.9266784834672545 5.312230855276656
H -7.171591980876663 -0.5867309919305979 4.4771777140633535
H -6.065462011217493 -1.475617536999308 5.040997235557256
O 5.277091735455066 -9.325525642181258 -4.817462626489245
H 5.911320195023155 -9.857895741500881 -4.314169774042177
H 5.8306072336563055 -8.82252821040191 -5.433560119727458
O 8.257568477008167 6.121068147850618 7.764068172434979
H 7.8231239606557 6.838845549310938 8.248857736126425
H 7.851047735812173 5.317466028269006 8.121736265338722
O -3.2110825943830275 7.5634481250489625 5.247333489049203
H -2.8807463057809928 7.389429624246565 6.141516275011402
H -3.748531072406871 8.363443042557348 5.347927771842028
O -0.4531383440866006 8.84342085449428 4.902350797253693
H -0.41224411936392347 8.731757788737038 3.9406718596502808
H 0.37587868582863226 9.294949538275127 5.121016194913362
O 3.9405407431744957 6.482682602047477 -5.2911808517258905
H 3.914845933688409 6.012406185085435 -6.138026307115963
H 4.292441474089414 7.356268253147622 -5.519163153831738
O -6.064299796351024 8.06409103873242 4.137700514056258
H -6.851608788105556 7.499750894025914 4.112558726627634
H -6.23664228899062 8.736535701417662 3.4616249375436157
O 5.431231783080528 0.20178450770901118 7.4983792945181245
H 5.60463792437103 0.5897381537340985 8.369234986121839
H 5.318340770923515 0.9697300542796647 6.918312745597688
O -8.570781872528116 5.799322828709528 -0.16926011405454688
H -8.575067961302304 5.7061655450755335 -1.133765534904506
H -8.551017575670965 4.886049918691986 0.15401052905712226
O 6.224673712411662 4.908958775082308 1.8724735700684418
H 6.281225054481897 5.113163449639035 2.8180261881173996
H 6.485412311798834 5.735220665193239 1.438574254512486
O -8.266198095708942 -7.284995493320414 -3.06542158341726
H -7.354806222379684 -7.516813366239317 -2.8317708099866064
H -8.4333281555954 -7.783865247995339 -3.8791527769037386
O 4.242422695897456 7.162283686177939 -0.4280685055535768
H 4.991592744515228 7.776291392287051 -0.4014953613536524
H 4.657049798711041 6.286537805254484 -0.41732318294259985
O -3.7421086895111833 -1.3306595208844918 -11.880054465383028
H -3.8911395293446396 -0.6456572997088603 -12.549030640342187
H -2.7775537661168563 -1.4155869190337227 -11.842864667059231
O 7.941677839602354 -0.08840838047837885 4.084797180181689
H 8.17112882313592 0.20852729262002212 4.978188924657245
H 6.974218648524611 -0.14163813659141145 4.097095593223456
O 4.291729005881482 2.3929829858898803 4.551364881315348
H 4.519823883331194 2.898542223838363 5.345940202292631
H 4.668293500651383 2.9140084953195933 3.826317611061748
O -2.7392282901696796 -4.863836577345757 -9.824282196773035
H -2.7763842724177143 -5.280886173163445 -10.698156572476709
H -3.6694088652113037 -4.721002378195525 -9.593361358240983
O -10.951739037236251 4.650974296107527 9.664896514259203
H -11.523730296106404 5.349872919203729 9.31370700514714
H -10.151798576871823 4.707842775933205 9.121000218836755
O 0.5634973627979445 -4.71875465091664 -7.298083363017523
H 0.5023224265055619 -4.724589129598485 -6.331030653529496
H 0.8512087303934204 -3.8178063716161583 -7.508977438993691
O -6.846511266475131 -3.9164406814754162 4.125306904249118
H -6.9729403981589355 -3.338691200130924 3.357720708198244
H -7.748151539261087 -4.140278229516347 4.4008128295528985
O 4.097975171609653 -3.8717536769188983 2.7341867439080763
H 4.955991151506463 -4.282051215024659 2.5486284906125936
H 3.9397093181063294 -3.3025756698502686 1.9661045476658727
C -7.353104943699731 -6.835148609226268 -0.5696274075346097
O -6.775636861841503 -6.648618617192579 0.46214554898581245
O -7.930573025557957 -7.021678601259956 -1.601400364055031