146

C -5.3564454929577465 1.0091607042253532 -0.0734429577464788
C -4.079135492957747 0.16955070422535368 -0.19788295774647868
C -4.333545492957747 -1.2789292957746463 0.3017270422535212
C -3.1403854929577464 -2.1745492957746464 0.7330270422535212
C -2.905235492957746 0.902300704225353 0.41966704225352136
C -2.7423854929577463 1.056130704225354 1.8024770422535212
C -1.8861754929577463 1.3499307042253532 -0.4326129577464788
C -1.5304554929577463 1.5279207042253526 2.3254170422535214
H -3.5237954929577464 0.7301007042253529 2.484817042253521
C -0.6776454929577462 1.8010507042253527 0.08546704225352131
H -1.9759254929577463 1.2426607042253535 -1.5115229577464788
C -0.4680254929577463 1.8513207042253539 1.4698070422535212
H -1.3950654929577464 1.5446707042253527 3.404047042253521
H 0.1461845070422536 1.9972507042253538 -0.6030529577464789
C -1.8679654929577463 -2.0866092957746467 -0.08765295774647863
C -0.6628654929577462 -1.814079295774647 0.5787970422535212
C -1.8438954929577462 -2.213429295774647 -1.4808029577464787
C 0.5129345070422537 -1.5763292957746469 -0.13022295774647863
H -0.6401854929577462 -1.7032692957746463 1.6609470422535213
C -0.6547954929577462 -1.9962392957746466 -2.1933129577464787
H -2.7578654929577464 -2.4351492957746466 -2.026182957746479
C 0.5308845070422537 -1.645769295774647 -1.5261029577464789
H 1.4044045070422537 -1.2610992957746463 0.41551704225352126
H -0.6795654929577464 -2.0467992957746466 -3.2793129577464786
C 1.7843245070422535 -1.2521692957746469 -2.2771629577464787
H 1.4981245070422535 -0.9384492957746469 -3.290282957746479
H 2.241984507042254 -0.38631929577464685 -1.8135029577464787
C 0.9385645070422537 2.0647807042253534 1.9815670422535212
H 1.0508945070422537 1.5807407042253532 2.9609770422535213
H 1.6053245070422537 1.5496207042253536 1.3096170422535214
C 3.9676945070422533 -1.6881692957746468 -3.314052957746479
H 4.795084507042254 -2.398849295774647 -3.4044129577464783
H 3.548404507042253 -1.4816192957746468 -4.303802957746479
H 4.307714507042253 -0.7637192957746466 -2.851282957746479
C 2.344694507042253 -3.565079295774647 -3.101282957746479
H 1.6334345070422536 -4.047909295774646 -2.4251929577464786
H 1.8561845070422536 -3.293109295774647 -4.041792957746479
H 3.1808045070422537 -4.243519295774647 -3.298122957746479
C 3.5156645070422536 -2.648489295774647 -1.1110629577464786
H 3.9311845070422535 -1.748249295774647 -0.6771029577464787
H 2.767184507042254 -3.1044092957746465 -0.45972295774647876
H 4.319224507042254 -3.371819295774647 -1.2863129577464787
C 2.963994507042253 3.381090704225353 2.401027042253521
H 3.3337945070422537 4.369820704225353 2.6912870422535216
H 3.120994507042253 2.671350704225353 3.2183370422535216
H 3.4665445070422534 3.0664207042253535 1.4881370422535212
C 1.2973745070422538 4.282440704225354 0.8488370422535213
H 1.7592145070422538 3.7367207042253527 0.02653704225352116
H 0.23311450704225378 4.4484607042253534 0.6605570422535213
H 1.7921845070422535 5.251370704225354 0.9736770422535213
C 0.7724845070422537 4.194670704225353 3.2772470422535216
H -0.2956954929577462 4.278220704225354 3.057857042253521
H 0.9298945070422537 3.612620704225354 4.190337042253521
H 1.2046345070422537 5.193640704225353 3.3918370422535213
N 2.876084507042253 -2.324759295774647 -2.4576629577464786
N 1.4527845070422536 3.504690704225353 2.1388470422535213
C -3.593905492957746 -3.637819295774647 0.8297870422535213
H -2.8952554929577463 -1.8680692957746468 1.7595270422535212
H -5.022615492957747 -1.2402792957746467 1.1579970422535213
H -4.898275492957747 -1.7933092957746464 -0.48931295774647876
H -3.883675492957746 0.07871070422535364 -1.2758929577464788
H -3.8751654929577466 -4.038529295774646 -0.1505529577464788
H -4.4603554929577465 -3.7321892957746465 1.4932570422535212
H -2.7953554929577464 -4.271929295774647 1.2313670422535212
H -5.648775492957746 1.147700704225353 0.9733970422535213
H -6.189795492957747 0.5254307042253537 -0.5943629577464788
H -5.2178854929577465 2.002970704225354 -0.5139729577464787
C 3.6710445070422537 1.0263707042253536 -0.27764295774647874
O 2.7356545070422538 1.6631507042253526 -0.7327029577464788
O 3.650814507042253 0.3883007042253537 0.7790570422535212
O 4.756604507042254 0.8696707042253538 -0.8334829577464786
O -1.7818182842560395 -2.7449865768812693 -6.77375548978675
H -1.58732987857835 -3.4470413220956355 -7.412708345386398
H -1.8570094224037457 -1.94706996382383 -7.318399699937741
O -0.3172508603136386 -8.97559307543052 -6.862341338301693
H 0.08482165370478256 -8.727554147044483 -6.0163024855437275
H -0.573343531818518 -8.128495277636194 -7.257061250231022
O -2.818447769966835 -6.164051765045905 -4.492185300162964
H -3.633953086422651 -6.0663018599832395 -5.006348106861913
H -2.977824279502647 -6.949555104689382 -3.9476253163988937
O 5.7239097770249465 3.3325400110277887 -4.56440283084507
H 6.327974011803149 3.8655200012867272 -5.102924963301489
H 5.9976078902175205 3.5172755603253574 -3.6534011491997784
O -6.4337582761109235 -9.25708666228626 0.416075166531908
H -7.082347535476713 -9.801199985081558 0.887498565921456
H -5.93926944901721 -8.816727849387718 1.1235543959669994
O -0.8310155463196536 13.174259609102094 -1.137234198665749
H -1.1394397981377526 13.810463946494423 -1.7998697537589208
H -0.19782945428546989 12.621964317571242 -1.6199424212053362
O -5.637959846264941 -3.1105166625147636 2.68858106898978
H -6.038762238675158 -2.474069767249941 3.2995312704350503
H -6.158730227617788 -3.015698870759442 1.876934754039571
O -1.9373064326740208 4.017725253004535 -9.951411428651642
H -2.8493351512593486 4.228384399891214 -9.700824722682263
H -2.0312136591493646 3.2974410334020052 -10.5927647011211
O -10.388038566786374 -5.0331447723272005 1.5934700225257108
H -11.262949199659651 -4.6768535849121005 1.809236866956503
H -9.939207175817364 -5.08662188518168 2.4505887571136156
O 7.926722444818343 3.8774143139127193 -3.445935117043789
H 8.54859810680012 3.9427548580512357 -4.1861841502930135
H 8.352070623351821 3.2549736972138836 -2.8371588445086107
O -5.076105285215161 -4.0400764358162355 -4.805106715244833
H -5.266967414373013 -4.733117044754269 -5.454901851357848
H -5.9324920588444225 -3.8716517031452566 -4.38415927472812
O -2.0173760549898603 -4.503705787836057 7.407485258547274
H -2.021124758110213 -4.371713356185667 8.367449477730434
H -2.3571237536760474 -3.667504797420513 7.054921293903264
O -4.094738524740473 5.05268464330566 7.322810727612754
H -4.974978774900147 4.647789793797495 7.3085061919475605
H -3.5339286399924896 4.409876294255703 6.86318953156037
O -7.472073963409205 8.327167234462744 11.801474674078987
H -7.212114873895157 8.322088767922175 12.734942851285165
H -6.9633766496827905 7.599715772630479 11.412883168786307
O 0.2784218925550235 9.091413759016854 0.7894693287036776
H 0.1840504336680171 8.941275630051742 -0.16316907430052335
H 1.1792188281702933 8.792833657473441 0.9853691705833044
O 1.6661275901656212 2.737549671563081 -10.713923763034998
H 1.969774172745843 2.1536796157855855 -11.425163432734136
H 2.3969113191632987 2.7309446407239464 -10.077627087497666
O 11.872497722661066 -1.5045624266605486 -5.350356868186607
H 11.869285788944904 -1.591590477972014 -6.3154388122031415
H 10.992728901933498 -1.8118117285819473 -5.084713059968846
O 2.018110723441984 8.293052941128568 -8.08092456652065
H 2.172558707369303 7.401278353747826 -8.427119977326019
H 2.483096866042957 8.29788255360347 -7.230791337942676
O -11.556038180244382 0.7735294725822999 -3.6744361886538703
H -12.309290447059034 0.3387781201507325 -4.101717876767825
H -11.923495414006688 1.6069998217275705 -3.3438846756465708
O -7.5820992596440515 8.286828060120303 -2.0950589272184765
H -7.414573529876605 8.238852745354148 -1.1418533586557587
H -8.542008180705967 8.177505557911992 -2.1697944480680906
O -6.138362295566795 -0.0232837510622268 -9.106345399662917
H -6.144649197822164 0.7368378065059167 -8.505393613343738
H -6.861549405196886 0.16099831569079903 -9.724408882355519
O -10.46342607205526 -0.9458021534742045 3.388220950625592
H -10.888561791726055 -0.610538951715557 2.5845882221317
H -9.570152298241329 -0.571842666124744 3.3538958703263773
O -5.849078262675473 -8.797437616073156 7.015746889172802
H -5.786055707534015 -8.616594435712958 7.965637018903948
H -5.001202639611257 -9.21401541728356 6.800034563024821
O 4.565871933883643 7.554880662566164 3.86984523479481
H 4.10620896104779 8.24893504372276 3.3738958177157654
H 4.586381127201436 7.8909566103266755 4.778467419548367
C -2.2265679475835536 -13.095548428044344 3.1257475573814593
O -1.4688410684605535 -12.238876757098629 2.772502766685837
O -2.9842948267065554 -13.952220098990058 3.4789923480770817