146

C -5.3564454929577465 1.0091607042253532 -0.0734429577464788
C -4.079135492957747 0.16955070422535368 -0.19788295774647868
C -4.333545492957747 -1.2789292957746463 0.3017270422535212
C -3.1403854929577464 -2.1745492957746464 0.7330270422535212
C -2.905235492957746 0.902300704225353 0.41966704225352136
C -2.7423854929577463 1.056130704225354 1.8024770422535212
C -1.8861754929577463 1.3499307042253532 -0.4326129577464788
C -1.5304554929577463 1.5279207042253526 2.3254170422535214
H -3.5237954929577464 0.7301007042253529 2.484817042253521
C -0.6776454929577462 1.8010507042253527 0.08546704225352131
H -1.9759254929577463 1.2426607042253535 -1.5115229577464788
C -0.4680254929577463 1.8513207042253539 1.4698070422535212
H -1.3950654929577464 1.5446707042253527 3.404047042253521
H 0.1461845070422536 1.9972507042253538 -0.6030529577464789
C -1.8679654929577463 -2.0866092957746467 -0.08765295774647863
C -0.6628654929577462 -1.814079295774647 0.5787970422535212
C -1.8438954929577462 -2.213429295774647 -1.4808029577464787
C 0.5129345070422537 -1.5763292957746469 -0.13022295774647863
H -0.6401854929577462 -1.7032692957746463 1.6609470422535213
C -0.6547954929577462 -1.9962392957746466 -2.1933129577464787
H -2.7578654929577464 -2.4351492957746466 -2.026182957746479
C 0.5308845070422537 -1.645769295774647 -1.5261029577464789
H 1.4044045070422537 -1.2610992957746463 0.41551704225352126
H -0.6795654929577464 -2.0467992957746466 -3.2793129577464786
C 1.7843245070422535 -1.2521692957746469 -2.2771629577464787
H 1.4981245070422535 -0.9384492957746469 -3.290282957746479
H 2.241984507042254 -0.38631929577464685 -1.8135029577464787
C 0.9385645070422537 2.0647807042253534 1.9815670422535212
H 1.0508945070422537 1.5807407042253532 2.9609770422535213
H 1.6053245070422537 1.5496207042253536 1.3096170422535214
C 3.9676945070422533 -1.6881692957746468 -3.314052957746479
H 4.795084507042254 -2.398849295774647 -3.4044129577464783
H 3.548404507042253 -1.4816192957746468 -4.303802957746479
H 4.307714507042253 -0.7637192957746466 -2.851282957746479
C 2.344694507042253 -3.565079295774647 -3.101282957746479
H 1.6334345070422536 -4.047909295774646 -2.4251929577464786
H 1.8561845070422536 -3.293109295774647 -4.041792957746479
H 3.1808045070422537 -4.243519295774647 -3.298122957746479
C 3.5156645070422536 -2.648489295774647 -1.1110629577464786
H 3.9311845070422535 -1.748249295774647 -0.6771029577464787
H 2.767184507042254 -3.1044092957746465 -0.45972295774647876
H 4.319224507042254 -3.371819295774647 -1.2863129577464787
C 2.963994507042253 3.381090704225353 2.401027042253521
H 3.3337945070422537 4.369820704225353 2.6912870422535216
H 3.120994507042253 2.671350704225353 3.2183370422535216
H 3.4665445070422534 3.0664207042253535 1.4881370422535212
C 1.2973745070422538 4.282440704225354 0.8488370422535213
H 1.7592145070422538 3.7367207042253527 0.02653704225352116
H 0.23311450704225378 4.4484607042253534 0.6605570422535213
H 1.7921845070422535 5.251370704225354 0.9736770422535213
C 0.7724845070422537 4.194670704225353 3.2772470422535216
H -0.2956954929577462 4.278220704225354 3.057857042253521
H 0.9298945070422537 3.612620704225354 4.190337042253521
H 1.2046345070422537 5.193640704225353 3.3918370422535213
N 2.876084507042253 -2.324759295774647 -2.4576629577464786
N 1.4527845070422536 3.504690704225353 2.1388470422535213
C -3.593905492957746 -3.637819295774647 0.8297870422535213
H -2.8952554929577463 -1.8680692957746468 1.7595270422535212
H -5.022615492957747 -1.2402792957746467 1.1579970422535213
H -4.898275492957747 -1.7933092957746464 -0.48931295774647876
H -3.883675492957746 0.07871070422535364 -1.2758929577464788
H -3.8751654929577466 -4.038529295774646 -0.1505529577464788
H -4.4603554929577465 -3.7321892957746465 1.4932570422535212
H -2.7953554929577464 -4.271929295774647 1.2313670422535212
H -5.648775492957746 1.147700704225353 0.9733970422535213
H -6.189795492957747 0.5254307042253537 -0.5943629577464788
H -5.2178854929577465 2.002970704225354 -0.5139729577464787
C 3.6710445070422537 1.0263707042253536 -0.27764295774647874
O 2.7356545070422538 1.6631507042253526 -0.7327029577464788
O 3.650814507042253 0.3883007042253537 0.7790570422535212
O 4.756604507042254 0.8696707042253538 -0.8334829577464786
O -4.148470384234706 -4.509140110259979 -3.575622015951982
H -3.3531888860746037 -4.313531872943898 -3.0577107174863833
H -4.4358885805011345 -3.6423065919814146 -3.8995855576411023
O -7.779599313988536 -6.276037546574506 -4.067595102496752
H -7.806382134816044 -7.054758548392373 -3.491536391308126
H -7.017212035050775 -6.437108770887631 -4.643601736062847
O -2.5790951817448904 -1.7634142216090698 -8.144212178137433
H -1.9543242509650658 -1.138682656786524 -8.542130653288922
H -2.659662791609073 -1.4616291271045085 -7.22693546891843
O -2.8887430256726034 -1.0712693765250232 -12.970629193603536
H -3.637138045127146 -0.4583549472916171 -13.027269763808325
H -2.691074846618586 -1.1123662790249074 -12.022894906002637
O 4.883941788594912 -4.242248215799163 2.5232576139324383
H 4.7051107615297205 -4.3762193829322 1.5803692074728926
H 5.697166728399283 -4.744987780267229 2.680991795068408
O 7.90470724861847 0.2003959811996543 8.972128221627747
H 8.162673056210561 0.07936991175879626 8.045967496089757
H 7.007257148266898 -0.16258046430266315 9.014476322995549
O -2.997058635923537 -7.970195351011923 -8.366635700059541
H -2.0969954850965116 -7.611712808049341 -8.385181530167912
H -3.448253408539406 -7.435350836892505 -7.696317441931003
O 10.560727092460352 2.7789994834024823 5.358170475507187
H 11.435789147226856 2.589617261709387 5.728802545509785
H 10.033928772611732 3.045943999149668 6.126406181535729
O -8.698745922840514 -3.987983722024724 -4.520160676424912
H -8.637425878533572 -4.1613041737230905 -3.5687579067793376
H -7.940200263014583 -4.461334301775188 -4.893670589157014
O 0.7496870031324261 -0.3335211614789557 -5.165779990026485
H 0.6486658836850606 -0.21047947395290567 -6.12161618595984
H 0.5915359002931553 -1.280355909166152 -5.033665897126276
O -1.7148666693589318 7.823583741687104 0.4919061719847797
H -1.7662393979112347 8.582975149131874 -0.10780449988970431
H -0.7769985311251748 7.7772755248614445 0.7311149691482073
O 6.723331686052083 -4.425714768853524 -1.7442371720271614
H 6.383799399478472 -3.976899725839607 -2.5330655693598847
H 7.488481332440447 -3.8919306041039206 -1.4823547014524179
O -9.122113525825034 -10.572960883040732 2.155025929668173
H -9.735611074623975 -10.54454109173206 2.904546062806478
H -8.48786465541908 -11.264162409866078 2.3977825238177095
O 5.636047464578668 -0.709946352023934 5.076729447380702
H 4.761351026900316 -0.32515171272585697 4.916085168365651
H 5.537882712877628 -1.6353146043424025 4.806508753457131
O 9.255876845459003 -6.766534613510805 -10.930333455616022
H 9.086575123225712 -6.985071478897878 -11.859066960027077
H 8.380990749905243 -6.541932701803569 -10.57949126122637
O -4.629961690141385 9.291425870233535 -3.0439262796512345
H -5.19944478633127 10.073544389998133 -2.9896401755801483
H -3.742032528697899 9.656991894614821 -3.173946394927008
O -3.2738107054139673 7.364801433117646 -7.845710843196592
H -3.783601422650621 7.127319311992714 -7.056608173282631
H -2.709861202720234 6.592323258082668 -8.001275530083172
O 7.738910053450477 -6.029300503888656 3.844272004263336
H 7.906133526654161 -6.28070795720799 4.765031451309731
H 6.864343445157388 -5.612877628051968 3.8704861309629615
O 6.9528156690080465 6.977864724311493 0.5160379098335235
H 6.894976040815514 7.108909876318117 -0.44231959258721276
H 6.429758705140914 7.705950131711022 0.8838218088584252
O 1.2402988308784675 -5.572017290866853 9.200956753841885
H 1.4559902743908064 -5.621642641922514 8.257568242872958
H 0.6112271133983658 -4.837255897277513 9.258891312244314
O 10.709781333541315 -9.41042847998595 -0.17271105462740444
H 11.590784856716564 -9.039755641762088 -0.013331645493519062
H 10.703045040346073 -9.597489305599705 -1.1234606610825892
O 12.065926779164565 -5.57594602022451 -3.749035695154924
H 12.285416741398612 -5.2582026022932205 -4.637759855814373
H 11.115518189410288 -5.405487157709585 -3.6676155931444216
O -1.6179410420161076 -0.23127848970225462 5.1581057608393985
H -1.4377285006046603 0.12362432852325322 4.274626962885752
H -2.434789536128214 -0.7398797068568632 5.043889808032294
O 2.6565210842779274 -3.283289673225863 6.450584241668696
H 3.1267896611134045 -3.8393694809634114 5.8113737364611335
H 1.8044848413941987 -3.729866352794883 6.567055072255966
C 1.8539823967750948 11.727763747882786 -1.4195978783010288
O 1.0444468077635847 10.856913439971965 -1.557764909952628
O 2.663517985786606 12.598614055793607 -1.28143084664943