146

C -5.3564454929577465 1.0091607042253532 -0.0734429577464788
C -4.079135492957747 0.16955070422535368 -0.19788295774647868
C -4.333545492957747 -1.2789292957746463 0.3017270422535212
C -3.1403854929577464 -2.1745492957746464 0.7330270422535212
C -2.905235492957746 0.902300704225353 0.41966704225352136
C -2.7423854929577463 1.056130704225354 1.8024770422535212
C -1.8861754929577463 1.3499307042253532 -0.4326129577464788
C -1.5304554929577463 1.5279207042253526 2.3254170422535214
H -3.5237954929577464 0.7301007042253529 2.484817042253521
C -0.6776454929577462 1.8010507042253527 0.08546704225352131
H -1.9759254929577463 1.2426607042253535 -1.5115229577464788
C -0.4680254929577463 1.8513207042253539 1.4698070422535212
H -1.3950654929577464 1.5446707042253527 3.404047042253521
H 0.1461845070422536 1.9972507042253538 -0.6030529577464789
C -1.8679654929577463 -2.0866092957746467 -0.08765295774647863
C -0.6628654929577462 -1.814079295774647 0.5787970422535212
C -1.8438954929577462 -2.213429295774647 -1.4808029577464787
C 0.5129345070422537 -1.5763292957746469 -0.13022295774647863
H -0.6401854929577462 -1.7032692957746463 1.6609470422535213
C -0.6547954929577462 -1.9962392957746466 -2.1933129577464787
H -2.7578654929577464 -2.4351492957746466 -2.026182957746479
C 0.5308845070422537 -1.645769295774647 -1.5261029577464789
H 1.4044045070422537 -1.2610992957746463 0.41551704225352126
H -0.6795654929577464 -2.0467992957746466 -3.2793129577464786
C 1.7843245070422535 -1.2521692957746469 -2.2771629577464787
H 1.4981245070422535 -0.9384492957746469 -3.290282957746479
H 2.241984507042254 -0.38631929577464685 -1.8135029577464787
C 0.9385645070422537 2.0647807042253534 1.9815670422535212
H 1.0508945070422537 1.5807407042253532 2.9609770422535213
H 1.6053245070422537 1.5496207042253536 1.3096170422535214
C 3.9676945070422533 -1.6881692957746468 -3.314052957746479
H 4.795084507042254 -2.398849295774647 -3.4044129577464783
H 3.548404507042253 -1.4816192957746468 -4.303802957746479
H 4.307714507042253 -0.7637192957746466 -2.851282957746479
C 2.344694507042253 -3.565079295774647 -3.101282957746479
H 1.6334345070422536 -4.047909295774646 -2.4251929577464786
H 1.8561845070422536 -3.293109295774647 -4.041792957746479
H 3.1808045070422537 -4.243519295774647 -3.298122957746479
C 3.5156645070422536 -2.648489295774647 -1.1110629577464786
H 3.9311845070422535 -1.748249295774647 -0.6771029577464787
H 2.767184507042254 -3.1044092957746465 -0.45972295774647876
H 4.319224507042254 -3.371819295774647 -1.2863129577464787
C 2.963994507042253 3.381090704225353 2.401027042253521
H 3.3337945070422537 4.369820704225353 2.6912870422535216
H 3.120994507042253 2.671350704225353 3.2183370422535216
H 3.4665445070422534 3.0664207042253535 1.4881370422535212
C 1.2973745070422538 4.282440704225354 0.8488370422535213
H 1.7592145070422538 3.7367207042253527 0.02653704225352116
H 0.23311450704225378 4.4484607042253534 0.6605570422535213
H 1.7921845070422535 5.251370704225354 0.9736770422535213
C 0.7724845070422537 4.194670704225353 3.2772470422535216
H -0.2956954929577462 4.278220704225354 3.057857042253521
H 0.9298945070422537 3.612620704225354 4.190337042253521
H 1.2046345070422537 5.193640704225353 3.3918370422535213
N 2.876084507042253 -2.324759295774647 -2.4576629577464786
N 1.4527845070422536 3.504690704225353 2.1388470422535213
C -3.593905492957746 -3.637819295774647 0.8297870422535213
H -2.8952554929577463 -1.8680692957746468 1.7595270422535212
H -5.022615492957747 -1.2402792957746467 1.1579970422535213
H -4.898275492957747 -1.7933092957746464 -0.48931295774647876
H -3.883675492957746 0.07871070422535364 -1.2758929577464788
H -3.8751654929577466 -4.038529295774646 -0.1505529577464788
H -4.4603554929577465 -3.7321892957746465 1.4932570422535212
H -2.7953554929577464 -4.271929295774647 1.2313670422535212
H -5.648775492957746 1.147700704225353 0.9733970422535213
H -6.189795492957747 0.5254307042253537 -0.5943629577464788
H -5.2178854929577465 2.002970704225354 -0.5139729577464787
C 3.6710445070422537 1.0263707042253536 -0.27764295774647874
O 2.7356545070422538 1.6631507042253526 -0.7327029577464788
O 3.650814507042253 0.3883007042253537 0.7790570422535212
O 4.756604507042254 0.8696707042253538 -0.8334829577464786
O 5.447194559022037 -6.742831412470197 -2.871195025737201
H 5.216129002634261 -6.070240554148903 -2.213017539906948
H 5.59662910839859 -7.543055091985663 -2.3455779384052207
O -8.033946547547117 -3.6943594192354805 4.370138678681753
H -8.053811970052568 -4.648234420804682 4.200742092913215
H -8.688916069674884 -3.333510287892359 3.7538881015683208
O -1.642785243522264 7.713592203558255 -10.940003926807151
H -2.4355432039471436 8.212717538085444 -11.18774587625477
H -1.6094370464458785 6.991727700429676 -11.585574589999556
O -1.5054968442974088 -4.199211244746059 7.790996034609826
H -1.3055608898024382 -3.2510630449601097 7.788174289963606
H -1.3868511483974149 -4.466185916299369 6.867086045545195
O 6.770584533471401 -0.20264895959547014 11.100959000997927
H 6.699429434382195 0.0335280911001008 12.038042086694361
H 7.071582253324766 -1.1236238901292301 11.113900958786868
O -5.839248433000709 9.442894585728107 -4.036850422252208
H -6.627000515625004 9.723291968720146 -3.5471655022962203
H -5.555837944257014 8.635660555955521 -3.581862883579805
O 11.556949306184755 -0.7231902842655149 1.2408616639351662
H 11.329607815445183 0.0502257289396546 1.7785519781552859
H 10.749564814627583 -0.9028185356188572 0.7360588129044849
O -6.050765428426148 -1.731276897341513 7.113207290317135
H -6.709704081311432 -1.0799804327064524 6.829340906630023
H -5.3895033210410705 -1.2042410725198915 7.586417189823939
O -10.029310252174069 5.957838164777105 3.1020635794578135
H -9.100481003057013 6.2137474888206885 3.205765077770054
H -10.48390722977937 6.794456684298928 2.9221386366476527
O 7.143597824478742 7.570240712434629 -8.22731307212498
H 6.920729824721087 7.506367985472175 -9.168173043818113
H 6.471279005590535 8.168194873349044 -7.867590718755184
O 8.122028714606916 -2.372306333894113 -3.1589159423479756
H 8.177768699059293 -2.3803877938465776 -4.126280972229812
H 7.25530684807002 -2.76281291054248 -2.971140108010402
O 0.5640311126484905 10.69022944075558 8.075360544832193
H 0.05278576627127585 10.77025932546946 8.894622877824702
H 0.2183671093006394 9.885141341633913 7.6614626181133
O -4.5400221187795164 -3.1354690154425553 5.012410554438221
H -4.529365613658135 -3.922928383841268 4.447820845959844
H -3.965418292860006 -2.507577959990581 4.54922030192629
O 3.4545006719899307 -10.650947548439039 -6.305340361586156
H 3.342908758541762 -11.612863827628614 -6.270245154177426
H 4.250411164585101 -10.48822694817275 -5.777125974877603
O 0.6229613807318496 5.481923537102739 9.711408360209045
H 1.5867710298408557 5.441869153745941 9.619571746822654
H 0.3117037252632786 4.680817303515046 9.263848957761564
O -5.272360212038647 7.542295626820805 1.0502211829528958
H -5.537038986339622 7.785205925512615 0.15027280103091578
H -5.855338950023173 8.07027296651858 1.6162049849504698
O -1.217347704677136 -6.955060525139219 7.52705078633957
H -1.3891684367788006 -6.819700141174936 8.47104366733661
H -1.4344267534227375 -6.100656925001644 7.124765913435239
O 0.8527881133357975 -4.015197199590376 3.3895197700802235
H 1.314447134662859 -4.683458796948573 3.917974822495858
H -0.05888875286105666 -4.047212647331802 3.716295300142371
O 12.661659119372226 4.233422606055475 7.569318349139447
H 12.887312629713787 4.383855998090926 8.499596611129503
H 12.23252610682129 5.0581859686038335 7.296239244049211
O -1.5117979452806098 -9.928377574539239 -6.516521663993314
H -1.6301852528859622 -10.775794857736011 -6.971313649891651
H -0.6293731152241235 -9.995810994328728 -6.121881197878554
O 2.823038286518296 3.992337536232317 -10.771236075531865
H 3.5336959400856562 3.733272868512835 -11.376891550422936
H 3.290489899198861 4.309244822083872 -9.983822139741712
O 8.755945099498646 2.636239007990242 -0.4538212582998713
H 9.511626788896795 3.1627663019467622 -0.15268748416089117
H 8.922341598648067 2.507658729696193 -1.3997288972396569
O -5.199522624104716 -8.32259187934828 -3.3321387743243234
H -4.9972681795858005 -8.205034860655914 -2.3917979616779137
H -5.634306337703687 -7.493867753590693 -3.5834182802065353
O -3.8894703724133324 -7.106545571042977 -8.058928195679194
H -3.930245163129757 -6.81184190771401 -8.981129108800909
H -4.403522026238417 -6.440961281313385 -7.57756513647663
C 8.579963936431326 9.91511361607723 1.6229764761497139
O 8.475231190712266 10.912012064347296 2.2772262702733945
O 8.684696682150387 8.918215167807162 0.9687266820260313