146

C -5.3564454929577465 1.0091607042253532 -0.0734429577464788
C -4.079135492957747 0.16955070422535368 -0.19788295774647868
C -4.333545492957747 -1.2789292957746463 0.3017270422535212
C -3.1403854929577464 -2.1745492957746464 0.7330270422535212
C -2.905235492957746 0.902300704225353 0.41966704225352136
C -2.7423854929577463 1.056130704225354 1.8024770422535212
C -1.8861754929577463 1.3499307042253532 -0.4326129577464788
C -1.5304554929577463 1.5279207042253526 2.3254170422535214
H -3.5237954929577464 0.7301007042253529 2.484817042253521
C -0.6776454929577462 1.8010507042253527 0.08546704225352131
H -1.9759254929577463 1.2426607042253535 -1.5115229577464788
C -0.4680254929577463 1.8513207042253539 1.4698070422535212
H -1.3950654929577464 1.5446707042253527 3.404047042253521
H 0.1461845070422536 1.9972507042253538 -0.6030529577464789
C -1.8679654929577463 -2.0866092957746467 -0.08765295774647863
C -0.6628654929577462 -1.814079295774647 0.5787970422535212
C -1.8438954929577462 -2.213429295774647 -1.4808029577464787
C 0.5129345070422537 -1.5763292957746469 -0.13022295774647863
H -0.6401854929577462 -1.7032692957746463 1.6609470422535213
C -0.6547954929577462 -1.9962392957746466 -2.1933129577464787
H -2.7578654929577464 -2.4351492957746466 -2.026182957746479
C 0.5308845070422537 -1.645769295774647 -1.5261029577464789
H 1.4044045070422537 -1.2610992957746463 0.41551704225352126
H -0.6795654929577464 -2.0467992957746466 -3.2793129577464786
C 1.7843245070422535 -1.2521692957746469 -2.2771629577464787
H 1.4981245070422535 -0.9384492957746469 -3.290282957746479
H 2.241984507042254 -0.38631929577464685 -1.8135029577464787
C 0.9385645070422537 2.0647807042253534 1.9815670422535212
H 1.0508945070422537 1.5807407042253532 2.9609770422535213
H 1.6053245070422537 1.5496207042253536 1.3096170422535214
C 3.9676945070422533 -1.6881692957746468 -3.314052957746479
H 4.795084507042254 -2.398849295774647 -3.4044129577464783
H 3.548404507042253 -1.4816192957746468 -4.303802957746479
H 4.307714507042253 -0.7637192957746466 -2.851282957746479
C 2.344694507042253 -3.565079295774647 -3.101282957746479
H 1.6334345070422536 -4.047909295774646 -2.4251929577464786
H 1.8561845070422536 -3.293109295774647 -4.041792957746479
H 3.1808045070422537 -4.243519295774647 -3.298122957746479
C 3.5156645070422536 -2.648489295774647 -1.1110629577464786
H 3.9311845070422535 -1.748249295774647 -0.6771029577464787
H 2.767184507042254 -3.1044092957746465 -0.45972295774647876
H 4.319224507042254 -3.371819295774647 -1.2863129577464787
C 2.963994507042253 3.381090704225353 2.401027042253521
H 3.3337945070422537 4.369820704225353 2.6912870422535216
H 3.120994507042253 2.671350704225353 3.2183370422535216
H 3.4665445070422534 3.0664207042253535 1.4881370422535212
C 1.2973745070422538 4.282440704225354 0.8488370422535213
H 1.7592145070422538 3.7367207042253527 0.02653704225352116
H 0.23311450704225378 4.4484607042253534 0.6605570422535213
H 1.7921845070422535 5.251370704225354 0.9736770422535213
C 0.7724845070422537 4.194670704225353 3.2772470422535216
H -0.2956954929577462 4.278220704225354 3.057857042253521
H 0.9298945070422537 3.612620704225354 4.190337042253521
H 1.2046345070422537 5.193640704225353 3.3918370422535213
N 2.876084507042253 -2.324759295774647 -2.4576629577464786
N 1.4527845070422536 3.504690704225353 2.1388470422535213
C -3.593905492957746 -3.637819295774647 0.8297870422535213
H -2.8952554929577463 -1.8680692957746468 1.7595270422535212
H -5.022615492957747 -1.2402792957746467 1.1579970422535213
H -4.898275492957747 -1.7933092957746464 -0.48931295774647876
H -3.883675492957746 0.07871070422535364 -1.2758929577464788
H -3.8751654929577466 -4.038529295774646 -0.1505529577464788
H -4.4603554929577465 -3.7321892957746465 1.4932570422535212
H -2.7953554929577464 -4.271929295774647 1.2313670422535212
H -5.648775492957746 1.147700704225353 0.9733970422535213
H -6.189795492957747 0.5254307042253537 -0.5943629577464788
H -5.2178854929577465 2.002970704225354 -0.5139729577464787
C 3.6710445070422537 1.0263707042253536 -0.27764295774647874
O 2.7356545070422538 1.6631507042253526 -0.7327029577464788
O 3.650814507042253 0.3883007042253537 0.7790570422535212
O 4.756604507042254 0.8696707042253538 -0.8334829577464786
O -0.2676150713863623 -8.705422054618438 2.715773111388988
H -0.19449365502377525 -9.384239848173763 3.4033972954618084
H 0.5381728753702664 -8.817703077195578 2.1894075529310215
O 8.867826794438361 -0.13795399440957778 -1.2225771424548157
H 8.175101386521476 0.13400330292785778 -0.6019821903714921
H 8.853553348650465 -1.1059043394496793 -1.1797946392310699
O -9.562909545193321 5.444776640604007 0.3175602016829071
H -9.03374834613645 5.100176972512282 -0.41742745199827525
H -9.415686985231538 4.80632789357028 1.0314724228623477
O -3.7025817753961454 3.329815477209249 -8.847494932568946
H -4.542496845379684 3.4603088350258115 -8.382219191013139
H -3.9352974457908525 3.429057259742869 -9.782885989642025
O -3.9534279447084755 -5.650239393321073 8.539140235419238
H -4.195553121159106 -5.749005897515742 7.606087217912775
H -4.402824603961744 -6.388672891566466 8.976999294502264
O -4.7054534307447895 1.3087753406996423 5.13214604429917
H -4.683032740491807 1.4790088499899323 6.085815390489606
H -5.650925120345037 1.2714339918801378 4.9232181808323885
O -6.169687615383658 4.041227653014348 6.437129069202885
H -6.371221314101678 3.31092638134343 5.83296718876282
H -6.632718169755198 3.8034164791838094 7.254448159656379
O -5.950885351939303 3.6753401080069454 10.088056399473478
H -5.888882783233594 3.6888214191165734 11.05498002242653
H -5.122850239559631 4.084314024966724 9.79469632684436
O 1.7737324083788226 11.193926533344216 1.1165515160087072
H 2.1681215748746623 10.484684889937869 1.6460803948330653
H 1.2818727080754078 11.722625550884903 1.7627042288939423
O 6.472756656339218 2.330200722523805 10.221214436652572
H 7.210546317715039 1.8897221344016768 10.669112177072066
H 5.9605116068681685 1.6007036490958648 9.841213155796215
O 9.261030750851544 -3.5963896038799903 -4.595814940990256
H 9.204087589631332 -3.4487086196652283 -5.551804041446746
H 8.395648286442226 -3.314251524235429 -4.263439793593022
O 0.43169940115617944 -7.7667382486035095 -3.8462175113434944
H 0.9095987282140108 -7.373923268449085 -3.1003783990250584
H 1.1338381705704617 -8.050862136074958 -4.450565680326829
O -0.9553182237818927 -6.729582525526656 -9.019387596524101
H -0.7147443462025409 -5.841105155809053 -9.322206898792183
H -0.6987066299486235 -7.30520496095545 -9.755438712983665
O -9.10202463700032 -9.833351259435737 6.0638980021698945
H -9.114116133103352 -10.096753029702576 6.996336021580454
H -9.205960337773229 -8.870332322444487 6.091354174537589
O 9.730909485714133 2.981684256455936 -8.118821378474838
H 9.75886350918847 3.5763008935519816 -8.883423879360224
H 9.0086021493888 3.3320251189362367 -7.5761471334003545
O -9.13967347636959 -2.5925345534342816 -2.8540954704165733
H -8.92063477995258 -1.8405262190777918 -3.4245977678968877
H -8.336723849755757 -3.1348918972279107 -2.8631703287530024
O 1.8260796240663313 -8.007876310014895 4.566604658980129
H 0.9174989775327052 -7.848591082203029 4.269827331939364
H 2.3672815253092514 -7.490010997473115 3.951886866446796
O 1.4084835134484128 -14.256370698779978 0.027148888415336137
H 1.8079502432314212 -14.97434815215177 -0.48656510316580415
H 1.8892207472453926 -14.274842920639497 0.8682864713117372
O 11.008443052366204 -5.856622908107523 -1.5884452252641381
H 11.410936720362129 -5.063120733821508 -1.9722687570161046
H 10.068817182611452 -5.772984828075015 -1.8099623594910526
O -0.30186998960613654 16.41990290713678 -0.5837294226819308
H -0.5878586884669748 16.861243067591232 -1.397606983371451
H 0.6655359384960011 16.457597543188626 -0.6245562396747071
O 6.1881273487332065 3.1190426138442384 0.9619825989836124
H 6.524219855835468 2.374614634650775 1.4833617003711281
H 6.95945963417593 3.6952508335452965 0.852472155268682
O 1.3542147828917992 -10.155672637712755 8.46635770255327
H 0.792659861341309 -10.885406784721742 8.768204520776498
H 0.7853811835297879 -9.65794226262703 7.860012294181208
O 6.054525780643727 -9.539943785953021 -3.219800646427961
H 6.44167157677215 -10.056966535588433 -3.942139186033546
H 6.720457790923573 -8.860697762353364 -3.0350810172363176
O 2.7510392147275384 0.3010994136230447 -8.053886071138233
H 2.791033687473616 0.2877603448059447 -7.085800399158289
H 3.634289132891908 0.012403397660826432 -8.328633476458423
C 0.5046219376957024 2.244912125284944 -4.797055100739125
O 1.1023541957418577 3.2291320983378964 -5.123927322921875
O -0.09311032035045264 1.2606921522319907 -4.470182878556375