146

C -5.3564454929577465 1.0091607042253532 -0.0734429577464788
C -4.079135492957747 0.16955070422535368 -0.19788295774647868
C -4.333545492957747 -1.2789292957746463 0.3017270422535212
C -3.1403854929577464 -2.1745492957746464 0.7330270422535212
C -2.905235492957746 0.902300704225353 0.41966704225352136
C -2.7423854929577463 1.056130704225354 1.8024770422535212
C -1.8861754929577463 1.3499307042253532 -0.4326129577464788
C -1.5304554929577463 1.5279207042253526 2.3254170422535214
H -3.5237954929577464 0.7301007042253529 2.484817042253521
C -0.6776454929577462 1.8010507042253527 0.08546704225352131
H -1.9759254929577463 1.2426607042253535 -1.5115229577464788
C -0.4680254929577463 1.8513207042253539 1.4698070422535212
H -1.3950654929577464 1.5446707042253527 3.404047042253521
H 0.1461845070422536 1.9972507042253538 -0.6030529577464789
C -1.8679654929577463 -2.0866092957746467 -0.08765295774647863
C -0.6628654929577462 -1.814079295774647 0.5787970422535212
C -1.8438954929577462 -2.213429295774647 -1.4808029577464787
C 0.5129345070422537 -1.5763292957746469 -0.13022295774647863
H -0.6401854929577462 -1.7032692957746463 1.6609470422535213
C -0.6547954929577462 -1.9962392957746466 -2.1933129577464787
H -2.7578654929577464 -2.4351492957746466 -2.026182957746479
C 0.5308845070422537 -1.645769295774647 -1.5261029577464789
H 1.4044045070422537 -1.2610992957746463 0.41551704225352126
H -0.6795654929577464 -2.0467992957746466 -3.2793129577464786
C 1.7843245070422535 -1.2521692957746469 -2.2771629577464787
H 1.4981245070422535 -0.9384492957746469 -3.290282957746479
H 2.241984507042254 -0.38631929577464685 -1.8135029577464787
C 0.9385645070422537 2.0647807042253534 1.9815670422535212
H 1.0508945070422537 1.5807407042253532 2.9609770422535213
H 1.6053245070422537 1.5496207042253536 1.3096170422535214
C 3.9676945070422533 -1.6881692957746468 -3.314052957746479
H 4.795084507042254 -2.398849295774647 -3.4044129577464783
H 3.548404507042253 -1.4816192957746468 -4.303802957746479
H 4.307714507042253 -0.7637192957746466 -2.851282957746479
C 2.344694507042253 -3.565079295774647 -3.101282957746479
H 1.6334345070422536 -4.047909295774646 -2.4251929577464786
H 1.8561845070422536 -3.293109295774647 -4.041792957746479
H 3.1808045070422537 -4.243519295774647 -3.298122957746479
C 3.5156645070422536 -2.648489295774647 -1.1110629577464786
H 3.9311845070422535 -1.748249295774647 -0.6771029577464787
H 2.767184507042254 -3.1044092957746465 -0.45972295774647876
H 4.319224507042254 -3.371819295774647 -1.2863129577464787
C 2.963994507042253 3.381090704225353 2.401027042253521
H 3.3337945070422537 4.369820704225353 2.6912870422535216
H 3.120994507042253 2.671350704225353 3.2183370422535216
H 3.4665445070422534 3.0664207042253535 1.4881370422535212
C 1.2973745070422538 4.282440704225354 0.8488370422535213
H 1.7592145070422538 3.7367207042253527 0.02653704225352116
H 0.23311450704225378 4.4484607042253534 0.6605570422535213
H 1.7921845070422535 5.251370704225354 0.9736770422535213
C 0.7724845070422537 4.194670704225353 3.2772470422535216
H -0.2956954929577462 4.278220704225354 3.057857042253521
H 0.9298945070422537 3.612620704225354 4.190337042253521
H 1.2046345070422537 5.193640704225353 3.3918370422535213
N 2.876084507042253 -2.324759295774647 -2.4576629577464786
N 1.4527845070422536 3.504690704225353 2.1388470422535213
C -3.593905492957746 -3.637819295774647 0.8297870422535213
H -2.8952554929577463 -1.8680692957746468 1.7595270422535212
H -5.022615492957747 -1.2402792957746467 1.1579970422535213
H -4.898275492957747 -1.7933092957746464 -0.48931295774647876
H -3.883675492957746 0.07871070422535364 -1.2758929577464788
H -3.8751654929577466 -4.038529295774646 -0.1505529577464788
H -4.4603554929577465 -3.7321892957746465 1.4932570422535212
H -2.7953554929577464 -4.271929295774647 1.2313670422535212
H -5.648775492957746 1.147700704225353 0.9733970422535213
H -6.189795492957747 0.5254307042253537 -0.5943629577464788
H -5.2178854929577465 2.002970704225354 -0.5139729577464787
C 3.6710445070422537 1.0263707042253536 -0.27764295774647874
O 2.7356545070422538 1.6631507042253526 -0.7327029577464788
O 3.650814507042253 0.3883007042253537 0.7790570422535212
O 4.756604507042254 0.8696707042253538 -0.8334829577464786
O -1.1690594601820203 -8.541844224221673 4.31268324506093
H -1.2838727358317366 -7.599859195063686 4.5087686179902
H -1.5305038783366944 -8.640652342618024 3.4190631733169017
O 2.3905245495390837 -10.819841926709561 -8.320477718140253
H 2.9027923098865793 -9.997985489383487 -8.353660470199879
H 1.7634081829111716 -10.675669002368984 -7.59597707984206
O -7.412466774357421 -6.6061059020299355 0.06578074700807246
H -6.692476816913252 -7.25389841712118 0.09654883878027753
H -7.540380630290171 -6.443119345433465 -0.8808107024194207
O 14.033903204634651 -1.185213388694935 -2.973492395918216
H 14.90457744642097 -1.5102915114107036 -2.699233511428742
H 14.178594415809256 -0.24197139398382816 -3.141780651961939
O 7.550877310982633 -3.6125461795914795 6.193538153561974
H 8.456774606149338 -3.8838987430384595 5.982149332144183
H 7.002445358926005 -4.1407609507775485 5.594227304532688
O 2.098394213065162 -3.35256511611452 -10.026111569400102
H 1.4837171759323704 -3.237012662862372 -10.766237996079399
H 1.8342242365925805 -4.197558154797447 -9.632204305684557
O 5.997706904057335 0.8605315443486221 5.890421483692908
H 5.531215908059361 1.4275041574802398 5.258048521342742
H 5.286801461821159 0.44809464489125395 6.403715941548221
O -9.74477983141902 -7.389511472815222 0.9153469545157593
H -9.652725732068298 -6.702913944451309 1.5928993390125545
H -8.831194578763668 -7.604132190112174 0.6739719803829873
O -7.416557239849363 3.1104692537915777 -1.6711220617166986
H -7.6807468494917055 3.146288596201666 -2.602727225810552
H -7.206588496401126 2.1761377854132022 -1.523136324996307
O -8.092632562619674 -0.3451346373482016 -6.823070751571986
H -8.15601581560532 0.06601193558832641 -7.698232688417681
H -7.251580973750627 -0.01726637699898248 -6.470797316558174
O 9.304952756311831 3.9522571291521817 -0.5168668329661013
H 9.106035854770948 4.779782066083054 -0.9801182786615592
H 8.805036449012906 4.02110072860318 0.3103611820401819
O -0.22084840869844546 7.129287229713959 -6.985962421323082
H -0.9125787006717951 7.759161791664718 -6.733505303630188
H -0.6694641007706652 6.518616478166808 -7.589938528740751
O -2.3826155370576205 4.836409985297357 -5.341108963229985
H -3.0047303736083975 4.285851368216256 -4.842284649266494
H -2.5430163739598264 5.731905452995334 -5.007460370915479
O -6.8544835832496736 -4.293175676050942 -5.472685689513475
H -6.259827790694667 -4.768969632274764 -6.0718283741067705
H -7.554822657150879 -3.9601464484731324 -6.05370088677266
O -1.0627240994424523 -2.0955974990132478 10.697358064661753
H -1.1357916394537815 -1.8316536639498344 11.626853703935392
H -1.628679645689811 -1.4634380085141663 10.229350967980736
O -1.448096859011253 0.7380220566469334 -3.1765869386261487
H -1.2385893326781172 -0.2072377584355659 -3.216056360967631
H -1.9898528111922924 0.8908184192658084 -3.9653300553294626
O 5.374074553218984 -1.8759291820235087 4.701686259429214
H 6.177796106819905 -1.391058304731553 4.9423088966258275
H 4.779989191840665 -1.1901293033279827 4.361534743076291
O -0.5603875773249003 4.66554663302634 9.741205901275208
H -0.0064224138974333655 3.8776396197808167 9.847472043989164
H -1.452446415235288 4.355460720075699 9.958092278430474
O -7.223264716885972 0.11985143751282568 -9.576701659930322
H -7.136431341432064 -0.12706112641841205 -10.509686926470035
H -6.328711017405921 0.009160180396223128 -9.22105707801672
O 6.6996182507322715 -8.240602176528025 6.853559857466202
H 7.250151160274672 -9.03702756674972 6.813716787541795
H 6.708714350990036 -7.996448598168603 7.791252896490375
O 9.25444377718318 -3.2554878150099196 7.781195570012022
H 9.159519260558247 -3.6965979379335847 8.638737727866546
H 8.345027473210859 -3.1785944362283205 7.455601745333372
O -9.893714736222499 3.452427199955044 4.0468000279791125
H -9.887779619864933 3.5909975507011422 3.0877742779661492
H -10.823725714907592 3.5662032401519497 4.293977163860055
O 10.160965199071569 -6.334379444928374 -0.6968107080712307
H 10.000081172587802 -7.27298172568748 -0.8760017945576317
H 9.598427485354573 -5.873990364142752 -1.3375564917010783
O 1.597048383824727 4.174766899075525 -2.2238621545751798
H 2.034007248183022 3.981095477171741 -1.3809352964810282
H 0.8807503761077564 4.78101464881815 -1.9823196647877674
C -6.219364652483398 2.876552983199436 12.810631881112059
O -6.238374384322307 2.06584919595287 11.930168221021827
O -6.2003549206444895 3.687256770446 13.69109554120229