146

C -5.3564454929577465 1.0091607042253532 -0.0734429577464788
C -4.079135492957747 0.16955070422535368 -0.19788295774647868
C -4.333545492957747 -1.2789292957746463 0.3017270422535212
C -3.1403854929577464 -2.1745492957746464 0.7330270422535212
C -2.905235492957746 0.902300704225353 0.41966704225352136
C -2.7423854929577463 1.056130704225354 1.8024770422535212
C -1.8861754929577463 1.3499307042253532 -0.4326129577464788
C -1.5304554929577463 1.5279207042253526 2.3254170422535214
H -3.5237954929577464 0.7301007042253529 2.484817042253521
C -0.6776454929577462 1.8010507042253527 0.08546704225352131
H -1.9759254929577463 1.2426607042253535 -1.5115229577464788
C -0.4680254929577463 1.8513207042253539 1.4698070422535212
H -1.3950654929577464 1.5446707042253527 3.404047042253521
H 0.1461845070422536 1.9972507042253538 -0.6030529577464789
C -1.8679654929577463 -2.0866092957746467 -0.08765295774647863
C -0.6628654929577462 -1.814079295774647 0.5787970422535212
C -1.8438954929577462 -2.213429295774647 -1.4808029577464787
C 0.5129345070422537 -1.5763292957746469 -0.13022295774647863
H -0.6401854929577462 -1.7032692957746463 1.6609470422535213
C -0.6547954929577462 -1.9962392957746466 -2.1933129577464787
H -2.7578654929577464 -2.4351492957746466 -2.026182957746479
C 0.5308845070422537 -1.645769295774647 -1.5261029577464789
H 1.4044045070422537 -1.2610992957746463 0.41551704225352126
H -0.6795654929577464 -2.0467992957746466 -3.2793129577464786
C 1.7843245070422535 -1.2521692957746469 -2.2771629577464787
H 1.4981245070422535 -0.9384492957746469 -3.290282957746479
H 2.241984507042254 -0.38631929577464685 -1.8135029577464787
C 0.9385645070422537 2.0647807042253534 1.9815670422535212
H 1.0508945070422537 1.5807407042253532 2.9609770422535213
H 1.6053245070422537 1.5496207042253536 1.3096170422535214
C 3.9676945070422533 -1.6881692957746468 -3.314052957746479
H 4.795084507042254 -2.398849295774647 -3.4044129577464783
H 3.548404507042253 -1.4816192957746468 -4.303802957746479
H 4.307714507042253 -0.7637192957746466 -2.851282957746479
C 2.344694507042253 -3.565079295774647 -3.101282957746479
H 1.6334345070422536 -4.047909295774646 -2.4251929577464786
H 1.8561845070422536 -3.293109295774647 -4.041792957746479
H 3.1808045070422537 -4.243519295774647 -3.298122957746479
C 3.5156645070422536 -2.648489295774647 -1.1110629577464786
H 3.9311845070422535 -1.748249295774647 -0.6771029577464787
H 2.767184507042254 -3.1044092957746465 -0.45972295774647876
H 4.319224507042254 -3.371819295774647 -1.2863129577464787
C 2.963994507042253 3.381090704225353 2.401027042253521
H 3.3337945070422537 4.369820704225353 2.6912870422535216
H 3.120994507042253 2.671350704225353 3.2183370422535216
H 3.4665445070422534 3.0664207042253535 1.4881370422535212
C 1.2973745070422538 4.282440704225354 0.8488370422535213
H 1.7592145070422538 3.7367207042253527 0.02653704225352116
H 0.23311450704225378 4.4484607042253534 0.6605570422535213
H 1.7921845070422535 5.251370704225354 0.9736770422535213
C 0.7724845070422537 4.194670704225353 3.2772470422535216
H -0.2956954929577462 4.278220704225354 3.057857042253521
H 0.9298945070422537 3.612620704225354 4.190337042253521
H 1.2046345070422537 5.193640704225353 3.3918370422535213
N 2.876084507042253 -2.324759295774647 -2.4576629577464786
N 1.4527845070422536 3.504690704225353 2.1388470422535213
C -3.593905492957746 -3.637819295774647 0.8297870422535213
H -2.8952554929577463 -1.8680692957746468 1.7595270422535212
H -5.022615492957747 -1.2402792957746467 1.1579970422535213
H -4.898275492957747 -1.7933092957746464 -0.48931295774647876
H -3.883675492957746 0.07871070422535364 -1.2758929577464788
H -3.8751654929577466 -4.038529295774646 -0.1505529577464788
H -4.4603554929577465 -3.7321892957746465 1.4932570422535212
H -2.7953554929577464 -4.271929295774647 1.2313670422535212
H -5.648775492957746 1.147700704225353 0.9733970422535213
H -6.189795492957747 0.5254307042253537 -0.5943629577464788
H -5.2178854929577465 2.002970704225354 -0.5139729577464787
C 3.6710445070422537 1.0263707042253536 -0.27764295774647874
O 2.7356545070422538 1.6631507042253526 -0.7327029577464788
O 3.650814507042253 0.3883007042253537 0.7790570422535212
O 4.756604507042254 0.8696707042253538 -0.8334829577464786
O -0.8067564805864664 0.1310449598784149 -12.011109833379582
H -0.9567394722301967 0.1505017674699139 -12.96823777245353
H -0.050280727014662574 -0.46511454173361155 -11.904807306619068
O 6.188915478923672 -3.644207801366676 2.4935390061011713
H 6.244143888054241 -3.6931896694665634 1.527351676272037
H 5.992897412644811 -4.554054880722295 2.7632001901457888
O -0.7524255850306243 8.194257383283311 7.635879603773498
H 0.19775925253322613 8.346179257335399 7.750054362578859
H -1.1630240719028158 8.988200123315456 8.010079753998637
O 10.891272142232667 2.978423120744214 -12.657197108195147
H 11.110475129370649 2.482930903162406 -13.460568049694556
H 10.653182607915063 2.291729503880268 -12.016317092508325
O 5.068019712705837 -12.012655557099887 0.04405284719463287
H 4.956576184397477 -12.081475534194894 1.0041630011097074
H 4.818860578937348 -11.097748624820895 -0.15551412308746904
O -0.08256805873065254 -6.431966770867998 5.281634797010816
H -0.6156983643659162 -5.627729361223318 5.370750581478362
H 0.14459574714174117 -6.664538799050295 6.194470379856239
O -7.051739063929322 8.056905334679252 -3.7846060736522174
H -6.7101524736084315 8.000390640237143 -2.8795690315787645
H -6.4243308248370266 7.532710819370972 -4.304741590551247
O -4.3121388285007205 -3.3780956540225677 -6.222161007079015
H -4.487185619117946 -3.599630229371163 -5.295204476318416
H -3.4808457342533115 -2.881156689122678 -6.191090105566614
O 2.746732144063811 3.911333620814298 8.536021289518391
H 2.5272908529338887 3.23913462095168 9.198562896688031
H 2.2528159196651116 3.634804346752749 7.749547978996842
O 7.710520610891519 -1.009301497178674 -5.56374137111313
H 7.3385404520591075 -0.8601645151580581 -6.445986393161311
H 8.00385111227859 -0.12989058596081415 -5.281685329718897
O -8.81582539337135 -0.22006806324611272 -11.376713921142073
H -9.722305665464184 -0.3032588547012074 -11.708888822998883
H -8.323208477374584 -0.8933660687673917 -11.869623967839136
O -0.11829697285471064 4.6303772174159645 -11.909909031313179
H -0.08772382596366435 4.678425866986504 -12.877237293519771
H 0.25921222421252776 5.474951263050872 -11.621563003302503
O -10.933395807328164 2.9935693076444196 3.9543557686404442
H -10.594891556167568 2.71585537790074 3.089915370421731
H -10.589899515610728 3.8932018646483604 4.062214492232562
O 0.9237383300548778 -5.683242760166045 10.122908591339348
H 0.3685492132312218 -6.274534870715617 9.592714248232593
H 0.9420403894177509 -4.859530867611701 9.612883398836448
O -7.167558681655828 -2.375769375368065 -4.047995689322448
H -7.591409759151788 -1.8233956236368862 -4.721939944735267
H -6.335464205844405 -1.9167532046992424 -3.858562633366943
O -6.424440228713723 2.848156131574129 -13.185106966818225
H -6.468660343278971 2.3549994133386125 -14.018058579834861
H -5.933013465686044 3.651214115181136 -13.414365676238798
O 0.06412721801426913 -8.755979349188745 -4.8384118876594675
H -0.49737148757640814 -9.1182385331081 -5.540163157117586
H 0.3846313346607333 -7.917905443159018 -5.204295999838095
O 11.122673203321163 4.97043839788718 -6.27055627975259
H 11.96303132363132 5.43201335774773 -6.130149218112116
H 11.387497944927905 4.09012666685105 -6.576956437606814
O -1.7513975359675005 9.3392537511086 0.35513344865580176
H -1.5378923926676131 8.911802272982317 -0.48787790626900174
H -1.1617086325772563 10.107629104950677 0.38391290533020106
O -10.878602423100943 5.110177977275595 -11.879940735417845
H -10.749203944679476 4.950245665657759 -12.82685416672125
H -9.989993211204496 5.021005086205747 -11.503930352142309
O 6.752919921059909 0.8907368510086731 9.894810751383869
H 7.358239330316935 0.9747693470725357 10.646804308059725
H 6.065072577293489 1.5495064393541482 10.073278130600949
O -4.003495326405723 -3.777915794627303 -2.5894190472481027
H -4.08017047671551 -3.818068487457106 -3.554549110754306
H -4.871778682027285 -3.460919009584257 -2.298628750087189
O -3.238715881996237 6.337047596444625 1.0063057426460802
H -2.9803533489142935 5.41068920619837 0.88766219575098
H -3.5634067544477417 6.374491665675601 1.9185204779612397
O 4.1457466699176 -0.11157075431337832 -6.721993043237557
H 4.182772540535861 0.0008365329216317718 -7.68374199363024
H 3.3774004646228963 -0.6853607971762847 -6.582813160278087
C 3.0559677543794264 -3.795378793195147 -12.249717066350268
O 3.0758063101853548 -4.934377101734894 -11.882147287740644
O 3.036129198573499 -2.656380484655399 -12.617286844959892