146

C -5.3564454929577465 1.0091607042253532 -0.0734429577464788
C -4.079135492957747 0.16955070422535368 -0.19788295774647868
C -4.333545492957747 -1.2789292957746463 0.3017270422535212
C -3.1403854929577464 -2.1745492957746464 0.7330270422535212
C -2.905235492957746 0.902300704225353 0.41966704225352136
C -2.7423854929577463 1.056130704225354 1.8024770422535212
C -1.8861754929577463 1.3499307042253532 -0.4326129577464788
C -1.5304554929577463 1.5279207042253526 2.3254170422535214
H -3.5237954929577464 0.7301007042253529 2.484817042253521
C -0.6776454929577462 1.8010507042253527 0.08546704225352131
H -1.9759254929577463 1.2426607042253535 -1.5115229577464788
C -0.4680254929577463 1.8513207042253539 1.4698070422535212
H -1.3950654929577464 1.5446707042253527 3.404047042253521
H 0.1461845070422536 1.9972507042253538 -0.6030529577464789
C -1.8679654929577463 -2.0866092957746467 -0.08765295774647863
C -0.6628654929577462 -1.814079295774647 0.5787970422535212
C -1.8438954929577462 -2.213429295774647 -1.4808029577464787
C 0.5129345070422537 -1.5763292957746469 -0.13022295774647863
H -0.6401854929577462 -1.7032692957746463 1.6609470422535213
C -0.6547954929577462 -1.9962392957746466 -2.1933129577464787
H -2.7578654929577464 -2.4351492957746466 -2.026182957746479
C 0.5308845070422537 -1.645769295774647 -1.5261029577464789
H 1.4044045070422537 -1.2610992957746463 0.41551704225352126
H -0.6795654929577464 -2.0467992957746466 -3.2793129577464786
C 1.7843245070422535 -1.2521692957746469 -2.2771629577464787
H 1.4981245070422535 -0.9384492957746469 -3.290282957746479
H 2.241984507042254 -0.38631929577464685 -1.8135029577464787
C 0.9385645070422537 2.0647807042253534 1.9815670422535212
H 1.0508945070422537 1.5807407042253532 2.9609770422535213
H 1.6053245070422537 1.5496207042253536 1.3096170422535214
C 3.9676945070422533 -1.6881692957746468 -3.314052957746479
H 4.795084507042254 -2.398849295774647 -3.4044129577464783
H 3.548404507042253 -1.4816192957746468 -4.303802957746479
H 4.307714507042253 -0.7637192957746466 -2.851282957746479
C 2.344694507042253 -3.565079295774647 -3.101282957746479
H 1.6334345070422536 -4.047909295774646 -2.4251929577464786
H 1.8561845070422536 -3.293109295774647 -4.041792957746479
H 3.1808045070422537 -4.243519295774647 -3.298122957746479
C 3.5156645070422536 -2.648489295774647 -1.1110629577464786
H 3.9311845070422535 -1.748249295774647 -0.6771029577464787
H 2.767184507042254 -3.1044092957746465 -0.45972295774647876
H 4.319224507042254 -3.371819295774647 -1.2863129577464787
C 2.963994507042253 3.381090704225353 2.401027042253521
H 3.3337945070422537 4.369820704225353 2.6912870422535216
H 3.120994507042253 2.671350704225353 3.2183370422535216
H 3.4665445070422534 3.0664207042253535 1.4881370422535212
C 1.2973745070422538 4.282440704225354 0.8488370422535213
H 1.7592145070422538 3.7367207042253527 0.02653704225352116
H 0.23311450704225378 4.4484607042253534 0.6605570422535213
H 1.7921845070422535 5.251370704225354 0.9736770422535213
C 0.7724845070422537 4.194670704225353 3.2772470422535216
H -0.2956954929577462 4.278220704225354 3.057857042253521
H 0.9298945070422537 3.612620704225354 4.190337042253521
H 1.2046345070422537 5.193640704225353 3.3918370422535213
N 2.876084507042253 -2.324759295774647 -2.4576629577464786
N 1.4527845070422536 3.504690704225353 2.1388470422535213
C -3.593905492957746 -3.637819295774647 0.8297870422535213
H -2.8952554929577463 -1.8680692957746468 1.7595270422535212
H -5.022615492957747 -1.2402792957746467 1.1579970422535213
H -4.898275492957747 -1.7933092957746464 -0.48931295774647876
H -3.883675492957746 0.07871070422535364 -1.2758929577464788
H -3.8751654929577466 -4.038529295774646 -0.1505529577464788
H -4.4603554929577465 -3.7321892957746465 1.4932570422535212
H -2.7953554929577464 -4.271929295774647 1.2313670422535212
H -5.648775492957746 1.147700704225353 0.9733970422535213
H -6.189795492957747 0.5254307042253537 -0.5943629577464788
H -5.2178854929577465 2.002970704225354 -0.5139729577464787
C 3.6710445070422537 1.0263707042253536 -0.27764295774647874
O 2.7356545070422538 1.6631507042253526 -0.7327029577464788
O 3.650814507042253 0.3883007042253537 0.7790570422535212
O 4.756604507042254 0.8696707042253538 -0.8334829577464786
O 7.309882540306803 -9.93923532184909 0.22635119355719713
H 8.149790081286763 -10.329563117076265 -0.058546843954623284
H 6.855452503102385 -10.665955768850239 0.6783829153388039
O -8.08413231904025 8.337151471660416 -10.121858974953355
H -7.835776027041618 8.947460946260946 -10.83235799278344
H -7.5735991511032905 8.646417467934853 -9.358529182344267
O -12.779093072544574 -4.181896184182829 6.076394429003037
H -13.40402916801346 -4.9221070771808995 6.05380975793828
H -12.738860750545198 -3.938047342729163 7.013347494576891
O 0.32809312627675347 -12.549637242542625 0.5884438735199877
H -0.27185896017945055 -12.587226094907592 1.3484517215286336
H -0.24385718348279717 -12.287467313870366 -0.14851047782474636
O 10.342117394046362 -0.6016000011767746 -8.332744564306882
H 9.399065068330767 -0.4759677141777221 -8.516690742102991
H 10.392203235725944 -0.6141663785328664 -7.3651209603557435
O 8.4994160729406 3.462150920650054 8.857084004350256
H 9.390794477093158 3.7370700699095085 9.119441315818602
H 8.169928721198433 2.9722269229766605 9.625442323004812
O -9.898540853260858 0.1465995772360449 -5.711237365855033
H -9.864704812083017 0.08765304454004053 -6.677854035223263
H -10.711095906319503 -0.32613838023836994 -5.476215976165125
O -11.926208604904648 -4.061460272108282 -1.9415902696031855
H -12.246924924097423 -4.153703395792961 -1.0318652531084576
H -12.734799531529756 -4.057528766732156 -2.4755633035150386
O 6.22934534125527 -12.575874157886092 0.4272814218294867
H 6.8411036695212815 -12.947784848812843 1.080275711752119
H 6.803872274318038 -12.307413626280342 -0.30539155464463263
O 1.0854880074969508 -2.6843582428382344 -9.554422352129128
H 1.2295305385573396 -2.941926997150981 -8.631450281615887
H 0.1335246593370063 -2.5100808251674445 -9.602951825133768
O -3.4404692086320425 -5.340269578376727 3.0352883828943638
H -4.274808729681838 -5.398381121649857 2.5459337374144093
H -3.4119259829825035 -4.42118534272415 3.3409538803657606
O 8.125620402855203 4.910703209188078 -4.434435362038723
H 8.30121585016304 4.850930833188424 -5.385519406091675
H 7.445914779917728 4.237758966645144 -4.279167023748214
O -4.689499586681306 5.813740966387291 -1.2356997566518946
H -4.321798322874651 6.335832772022412 -1.9645229752609408
H -5.463619753427141 6.322212676270939 -0.9508200768124941
O -9.150380489419932 -2.322145479877518 4.776085905731299
H -9.058518328617234 -2.6344088992463623 5.688785339957451
H -10.042990973322897 -2.6008650658453636 4.522070432335626
O -5.692321819628238 14.281472665386197 4.257971290307182
H -5.602195875279403 14.865050778665495 5.026268925834331
H -4.923291363053387 13.695002117920037 4.318024584263632
O -7.606434614858254 -5.556827438707124 4.806703189571967
H -8.167115488801588 -5.981884929954336 4.140422135039596
H -7.322341478207111 -4.733187325606978 4.382592357241439
O -10.899594372840346 -0.09162457522169087 -2.8052709180352435
H -11.855816600831064 -0.23996265171524842 -2.8562829034764756
H -10.800899486438519 0.5553978526691694 -2.090719841131467
O 8.915654635053585 4.728374508729517 -2.45311903584101
H 8.740413864857395 4.678573683753185 -3.4048426864837396
H 8.608057730286564 3.874558193906715 -2.1134960256957043
O 10.088407898608283 2.1635265033113673 -7.684978039308215
H 11.02786697850107 1.9999493327554125 -7.85710155129861
H 10.08130326950706 2.597752200650603 -6.8187450958596365
O -6.517893309746731 3.7281794308967298 7.322091784002731
H -5.829185602581699 4.0411194159924975 6.7165196440229025
H -7.345113778733589 3.9946774105436305 6.893551159518562
O -6.876436516635634 0.1253146821955089 -4.523748241993746
H -6.949924461816296 0.26775891012083175 -5.479403263821123
H -7.116605138109666 0.9821685582270292 -4.140234992302132
O -6.342291754040594 -0.8235851988895296 -2.9346869799689577
H -7.091849884607492 -1.423123891062384 -3.067665633852653
H -5.569455453297209 -1.3599848786324051 -3.1669828691384025
O -0.15080691302056337 0.24126070205016004 -9.846743404802698
H 0.35183587181881393 -0.570553980795097 -10.011893362313355
H -0.4811968825433697 0.4941071564501667 -10.721885154941532
O -6.497048782931345 2.5694466485493273 -8.629212578905332
H -7.430554059524902 2.3801116598174197 -8.807222459288067
H -6.200957372538606 3.048724950340212 -9.417618648405107
C 5.40384174292697 13.11757541766682 8.226446205147674
O 4.38505967402237 12.504407760981712 8.364020832800293
O 6.422623811831569 13.73074307435193 8.088871577495054