146

C -5.3564454929577465 1.0091607042253532 -0.0734429577464788
C -4.079135492957747 0.16955070422535368 -0.19788295774647868
C -4.333545492957747 -1.2789292957746463 0.3017270422535212
C -3.1403854929577464 -2.1745492957746464 0.7330270422535212
C -2.905235492957746 0.902300704225353 0.41966704225352136
C -2.7423854929577463 1.056130704225354 1.8024770422535212
C -1.8861754929577463 1.3499307042253532 -0.4326129577464788
C -1.5304554929577463 1.5279207042253526 2.3254170422535214
H -3.5237954929577464 0.7301007042253529 2.484817042253521
C -0.6776454929577462 1.8010507042253527 0.08546704225352131
H -1.9759254929577463 1.2426607042253535 -1.5115229577464788
C -0.4680254929577463 1.8513207042253539 1.4698070422535212
H -1.3950654929577464 1.5446707042253527 3.404047042253521
H 0.1461845070422536 1.9972507042253538 -0.6030529577464789
C -1.8679654929577463 -2.0866092957746467 -0.08765295774647863
C -0.6628654929577462 -1.814079295774647 0.5787970422535212
C -1.8438954929577462 -2.213429295774647 -1.4808029577464787
C 0.5129345070422537 -1.5763292957746469 -0.13022295774647863
H -0.6401854929577462 -1.7032692957746463 1.6609470422535213
C -0.6547954929577462 -1.9962392957746466 -2.1933129577464787
H -2.7578654929577464 -2.4351492957746466 -2.026182957746479
C 0.5308845070422537 -1.645769295774647 -1.5261029577464789
H 1.4044045070422537 -1.2610992957746463 0.41551704225352126
H -0.6795654929577464 -2.0467992957746466 -3.2793129577464786
C 1.7843245070422535 -1.2521692957746469 -2.2771629577464787
H 1.4981245070422535 -0.9384492957746469 -3.290282957746479
H 2.241984507042254 -0.38631929577464685 -1.8135029577464787
C 0.9385645070422537 2.0647807042253534 1.9815670422535212
H 1.0508945070422537 1.5807407042253532 2.9609770422535213
H 1.6053245070422537 1.5496207042253536 1.3096170422535214
C 3.9676945070422533 -1.6881692957746468 -3.314052957746479
H 4.795084507042254 -2.398849295774647 -3.4044129577464783
H 3.548404507042253 -1.4816192957746468 -4.303802957746479
H 4.307714507042253 -0.7637192957746466 -2.851282957746479
C 2.344694507042253 -3.565079295774647 -3.101282957746479
H 1.6334345070422536 -4.047909295774646 -2.4251929577464786
H 1.8561845070422536 -3.293109295774647 -4.041792957746479
H 3.1808045070422537 -4.243519295774647 -3.298122957746479
C 3.5156645070422536 -2.648489295774647 -1.1110629577464786
H 3.9311845070422535 -1.748249295774647 -0.6771029577464787
H 2.767184507042254 -3.1044092957746465 -0.45972295774647876
H 4.319224507042254 -3.371819295774647 -1.2863129577464787
C 2.963994507042253 3.381090704225353 2.401027042253521
H 3.3337945070422537 4.369820704225353 2.6912870422535216
H 3.120994507042253 2.671350704225353 3.2183370422535216
H 3.4665445070422534 3.0664207042253535 1.4881370422535212
C 1.2973745070422538 4.282440704225354 0.8488370422535213
H 1.7592145070422538 3.7367207042253527 0.02653704225352116
H 0.23311450704225378 4.4484607042253534 0.6605570422535213
H 1.7921845070422535 5.251370704225354 0.9736770422535213
C 0.7724845070422537 4.194670704225353 3.2772470422535216
H -0.2956954929577462 4.278220704225354 3.057857042253521
H 0.9298945070422537 3.612620704225354 4.190337042253521
H 1.2046345070422537 5.193640704225353 3.3918370422535213
N 2.876084507042253 -2.324759295774647 -2.4576629577464786
N 1.4527845070422536 3.504690704225353 2.1388470422535213
C -3.593905492957746 -3.637819295774647 0.8297870422535213
H -2.8952554929577463 -1.8680692957746468 1.7595270422535212
H -5.022615492957747 -1.2402792957746467 1.1579970422535213
H -4.898275492957747 -1.7933092957746464 -0.48931295774647876
H -3.883675492957746 0.07871070422535364 -1.2758929577464788
H -3.8751654929577466 -4.038529295774646 -0.1505529577464788
H -4.4603554929577465 -3.7321892957746465 1.4932570422535212
H -2.7953554929577464 -4.271929295774647 1.2313670422535212
H -5.648775492957746 1.147700704225353 0.9733970422535213
H -6.189795492957747 0.5254307042253537 -0.5943629577464788
H -5.2178854929577465 2.002970704225354 -0.5139729577464787
C 3.6710445070422537 1.0263707042253536 -0.27764295774647874
O 2.7356545070422538 1.6631507042253526 -0.7327029577464788
O 3.650814507042253 0.3883007042253537 0.7790570422535212
O 4.756604507042254 0.8696707042253538 -0.8334829577464786
O -9.235998626262896 9.340680698826494 6.1443701853493975
H -8.833325240534956 9.429461968549253 5.267478294935982
H -8.552588078625243 8.90118496646614 6.672343166584836
O -3.0681658342035862 8.428622320790433 -3.058978399598384
H -2.6492945280787663 8.168246303633428 -3.893075825259645
H -2.4508269373058225 9.070747605999202 -2.6774947842587324
O -7.2168450265803035 -6.651126733646559 -0.9612704414080473
H -6.320727094157614 -6.767240724094091 -0.6113310905015882
H -7.077268366959882 -6.438788613857029 -1.896360182167431
O -0.017982640769483638 11.216423495505557 -0.24216743839496901
H -0.5212876821281252 11.68193112583328 -0.9269696276070412
H -0.5724826865117416 10.452696592883015 -0.02259316444100845
O -9.184697846758109 3.248631980559711 3.40152542489877
H -8.518482975452045 3.4870489912258757 2.739496398967388
H -10.026572091994387 3.344231144345204 2.9313440775535566
O 6.149846918358717 -9.307450624419218 7.978468806805571
H 6.159432258323461 -9.349854510085908 8.946496383188665
H 6.416465895840712 -10.197253546664873 7.702557544422993
O -1.997311056418888 -3.9860700639888798 9.011485223190695
H -2.336103107846184 -3.904561168681281 9.915666401260344
H -2.646615097457419 -3.5078060954647863 8.474242463348725
O -3.735759735835856 3.1059448308274247 -5.843790810369411
H -4.360610059807896 3.0831359945071473 -6.584067236117085
H -3.4059267864998954 2.196529040566765 -5.7877989336646545
O 2.7795378491373794 5.223455532686065 6.094924762002419
H 2.7665733320471464 4.61269067765922 5.342750865844984
H 2.8095244859860866 6.100423292239051 5.6838404706276195
O -11.842025196373807 -1.285399812225048 11.18417077515923
H -12.146954152897397 -1.9279021549695519 11.842332174772775
H -12.576953049680057 -1.227846743405165 10.55525850861955
O 10.009999111945643 -0.5664031193999612 -7.172452068817621
H 10.491730622378846 -1.370461626442804 -6.926704177661293
H 9.126491333019692 -0.8860984652898178 -7.409455939447822
O 3.1086301440021993 -10.835377363138996 -5.3848821010377605
H 3.1403471610550158 -10.106035953331634 -6.022081046163603
H 3.403404690524888 -11.604756363330786 -5.894907458335049
O 8.603789415797992 -0.8981526409067162 -2.5532870292289274
H 9.22490194768785 -1.0257546670285307 -1.8205494892059142
H 7.933240634296986 -1.5836205802659662 -2.413787996837662
O 2.4685671185651032 2.569049711978005 -2.7130725476117146
H 3.220109427069722 2.008584353009903 -2.4680621461502557
H 1.8709084719333484 2.5045424450473193 -1.9530693246452375
O -0.1465187551927445 8.315226791308328 8.876785530712072
H -0.3878231789976226 8.670653907155355 9.745353949014776
H -0.6120741569991881 8.890239608560101 8.251021699746252
O 5.659704354955924 -6.884429362774322 -10.39027633918929
H 5.883343837646674 -6.968437946559282 -11.329369144258235
H 6.452138226471227 -6.490756949985365 -9.995266801349775
O -4.2333768873847335 -2.5334531444704425 -7.448960837705737
H -4.270499304214377 -3.036054099988677 -8.276596967040897
H -4.102436248374643 -3.211396035651445 -6.769100609678849
O 6.832317159184018 -2.448288685127613 -4.626359891365028
H 6.173131146598309 -2.3781557286732324 -3.9195908158316364
H 6.597112718914297 -1.7340460249125942 -5.2375049133576645
O 10.56033208931199 -6.860415950898855 5.965840483892431
H 10.623835505315897 -7.51558130315615 6.676961454091884
H 10.164574376202834 -6.086933000956154 6.394864845627929
O -8.551059842674722 -6.411661738303375 -2.9713607071451764
H -8.696052105717502 -6.371081285443701 -3.928595175498379
H -9.111914640442937 -5.704143128522581 -2.6194782595377
O -0.00970507935656606 -14.133565050550427 2.282679248728442
H 0.3318377203942875 -14.916416446696841 1.8250117226902063
H 0.08323244093985371 -14.352471515630658 3.2220431405016097
O 2.5516038715138176 8.133449791671506 1.6570296902967958
H 2.9154053270641263 8.344917037737424 0.7841623110914695
H 2.064972132475235 8.933006398024183 1.907750108488204
O -7.301579841681736 -8.388440601517956 -10.315707515744345
H -7.338006328313444 -8.381417957382283 -11.28400042103748
H -6.385294628811659 -8.146007415007803 -10.11418951889501
O 9.62015056572371 2.091528884080259 -8.469442171191904
H 9.403126278728255 2.534236353000593 -9.303635142102273
H 9.755877951481379 1.166419013700243 -8.72382721159495
C 4.783152796434476 5.116036870620282 5.18769392883463
O 4.7324514236395565 6.006524001146673 5.9859923056735065
O 4.8338541692293955 4.22554974009389 4.3893955519957535