146

C -5.3564454929577465 1.0091607042253532 -0.0734429577464788
C -4.079135492957747 0.16955070422535368 -0.19788295774647868
C -4.333545492957747 -1.2789292957746463 0.3017270422535212
C -3.1403854929577464 -2.1745492957746464 0.7330270422535212
C -2.905235492957746 0.902300704225353 0.41966704225352136
C -2.7423854929577463 1.056130704225354 1.8024770422535212
C -1.8861754929577463 1.3499307042253532 -0.4326129577464788
C -1.5304554929577463 1.5279207042253526 2.3254170422535214
H -3.5237954929577464 0.7301007042253529 2.484817042253521
C -0.6776454929577462 1.8010507042253527 0.08546704225352131
H -1.9759254929577463 1.2426607042253535 -1.5115229577464788
C -0.4680254929577463 1.8513207042253539 1.4698070422535212
H -1.3950654929577464 1.5446707042253527 3.404047042253521
H 0.1461845070422536 1.9972507042253538 -0.6030529577464789
C -1.8679654929577463 -2.0866092957746467 -0.08765295774647863
C -0.6628654929577462 -1.814079295774647 0.5787970422535212
C -1.8438954929577462 -2.213429295774647 -1.4808029577464787
C 0.5129345070422537 -1.5763292957746469 -0.13022295774647863
H -0.6401854929577462 -1.7032692957746463 1.6609470422535213
C -0.6547954929577462 -1.9962392957746466 -2.1933129577464787
H -2.7578654929577464 -2.4351492957746466 -2.026182957746479
C 0.5308845070422537 -1.645769295774647 -1.5261029577464789
H 1.4044045070422537 -1.2610992957746463 0.41551704225352126
H -0.6795654929577464 -2.0467992957746466 -3.2793129577464786
C 1.7843245070422535 -1.2521692957746469 -2.2771629577464787
H 1.4981245070422535 -0.9384492957746469 -3.290282957746479
H 2.241984507042254 -0.38631929577464685 -1.8135029577464787
C 0.9385645070422537 2.0647807042253534 1.9815670422535212
H 1.0508945070422537 1.5807407042253532 2.9609770422535213
H 1.6053245070422537 1.5496207042253536 1.3096170422535214
C 3.9676945070422533 -1.6881692957746468 -3.314052957746479
H 4.795084507042254 -2.398849295774647 -3.4044129577464783
H 3.548404507042253 -1.4816192957746468 -4.303802957746479
H 4.307714507042253 -0.7637192957746466 -2.851282957746479
C 2.344694507042253 -3.565079295774647 -3.101282957746479
H 1.6334345070422536 -4.047909295774646 -2.4251929577464786
H 1.8561845070422536 -3.293109295774647 -4.041792957746479
H 3.1808045070422537 -4.243519295774647 -3.298122957746479
C 3.5156645070422536 -2.648489295774647 -1.1110629577464786
H 3.9311845070422535 -1.748249295774647 -0.6771029577464787
H 2.767184507042254 -3.1044092957746465 -0.45972295774647876
H 4.319224507042254 -3.371819295774647 -1.2863129577464787
C 2.963994507042253 3.381090704225353 2.401027042253521
H 3.3337945070422537 4.369820704225353 2.6912870422535216
H 3.120994507042253 2.671350704225353 3.2183370422535216
H 3.4665445070422534 3.0664207042253535 1.4881370422535212
C 1.2973745070422538 4.282440704225354 0.8488370422535213
H 1.7592145070422538 3.7367207042253527 0.02653704225352116
H 0.23311450704225378 4.4484607042253534 0.6605570422535213
H 1.7921845070422535 5.251370704225354 0.9736770422535213
C 0.7724845070422537 4.194670704225353 3.2772470422535216
H -0.2956954929577462 4.278220704225354 3.057857042253521
H 0.9298945070422537 3.612620704225354 4.190337042253521
H 1.2046345070422537 5.193640704225353 3.3918370422535213
N 2.876084507042253 -2.324759295774647 -2.4576629577464786
N 1.4527845070422536 3.504690704225353 2.1388470422535213
C -3.593905492957746 -3.637819295774647 0.8297870422535213
H -2.8952554929577463 -1.8680692957746468 1.7595270422535212
H -5.022615492957747 -1.2402792957746467 1.1579970422535213
H -4.898275492957747 -1.7933092957746464 -0.48931295774647876
H -3.883675492957746 0.07871070422535364 -1.2758929577464788
H -3.8751654929577466 -4.038529295774646 -0.1505529577464788
H -4.4603554929577465 -3.7321892957746465 1.4932570422535212
H -2.7953554929577464 -4.271929295774647 1.2313670422535212
H -5.648775492957746 1.147700704225353 0.9733970422535213
H -6.189795492957747 0.5254307042253537 -0.5943629577464788
H -5.2178854929577465 2.002970704225354 -0.5139729577464787
C 3.6710445070422537 1.0263707042253536 -0.27764295774647874
O 2.7356545070422538 1.6631507042253526 -0.7327029577464788
O 3.650814507042253 0.3883007042253537 0.7790570422535212
O 4.756604507042254 0.8696707042253538 -0.8334829577464786
O -2.9644323237401498 4.443937698095526 -0.16877845026383434
H -2.9650797002391505 4.4188678721488115 0.7999002589223804
H -2.940984664848678 3.5102881289172627 -0.4270624675118103
O 9.37219973986052 -3.110740792523014 -6.382435089260868
H 10.218169602783329 -2.712170809579982 -6.636293941033177
H 9.069940947464602 -2.565666216515988 -5.6404814024918615
O 5.2529495599018015 6.297699332959716 -3.8162577606361405
H 5.173480877891268 5.959383875381229 -4.720798935289328
H 6.021946754326878 5.829482809746153 -3.457958239765456
O -4.4832079695021205 -4.931705464929823 -1.979323439780775
H -4.2114966050011065 -5.269799718656348 -2.845829392961769
H -5.416756173157334 -5.182645824713975 -1.91240086075454
O -1.5038900685130534 -0.765358778768801 7.904563497739188
H -2.393805807751164 -0.8107990095932691 7.523837192660452
H -1.6488269953820167 -0.8923527171492855 8.854209627170775
O 4.395178144886576 -8.868978735510662 -0.10007706350228707
H 3.8380017066685874 -8.356275039025398 -0.7047726011119697
H 3.7771672456820897 -9.186153083551735 0.5755151994116552
O 2.8956924554111367 6.873219070037088 -3.74846013418544
H 3.8163044170948535 7.0744751690017145 -3.5227679643292404
H 2.6554329234264946 7.561354913249794 -4.386979016346695
O 11.587525371271653 -3.489674792821083 1.30979659751251
H 11.763328024460561 -2.5491230638412197 1.1567501041037067
H 12.455679892663241 -3.856420103166465 1.5351131495609804
O 5.689207076645915 3.2592450137921967 2.9051196196376186
H 5.463392566105092 3.313452487813402 1.9643557207291575
H 6.507315201752009 2.7401670176853234 2.9199207646293743
O 1.4448607307581052 1.728658704034491 8.896037290754807
H 1.877170721969061 2.280148213558502 9.565316566755605
H 1.11645322506483 2.3659606533248985 8.24415027605443
O 0.03764058284684557 -0.978579452650435 -5.036552714786534
H 0.24511481753172437 -0.569780948481595 -5.890253822804582
H 0.5377019020257836 -1.8085169103645822 -5.046772188549815
O -2.017150053753789 9.347067269406994 -4.442737554281172
H -1.4353709959096732 8.587690026602363 -4.597161282588871
H -1.4437628303789083 10.114576402848277 -4.588060527188598
O -10.073424365831317 -2.414218591389401 2.553070904794363
H -9.99731394619616 -2.102348638141094 1.6387888404488677
H -10.137236998521269 -3.37730458432245 2.46730807820067
O -5.451675597946941 2.889320559352427 4.899685861080155
H -5.60673360816448 2.6518472427729898 5.826255229384623
H -4.6263538608376535 3.396530182802103 4.923017651301768
O 10.263531664632673 0.6452098948491896 5.3790917390518205
H 9.477507180404663 0.45677442251193506 5.913530640947186
H 10.072894377378198 0.2259863724175796 4.5265244354046015
O -10.430596052003951 -1.5915029002572547 6.867979216845794
H -11.316121947446751 -1.984777244841462 6.880084393097721
H -10.190091279482953 -1.5275113905673177 7.804475071285217
O -0.8206153867587209 2.7369107417030807 -8.246681691030398
H 0.07414611380761005 3.107950132447522 -8.22024337564755
H -1.3972332610840912 3.515640794595173 -8.239382647862385
O 6.987394497900807 -1.7754130081757564 3.734213455128434
H 7.3290699489685 -2.378433347175922 4.411407455242001
H 7.7766454167871295 -1.5065593642551438 3.240490203207173
O 2.5428841674718674 -6.895377371856826 -6.424516228558199
H 3.1128703222090275 -6.578164148007199 -7.141076701179228
H 3.162558145842249 -7.272262293115227 -5.781924709038472
O -11.229825811158015 -8.340621064275666 6.363837135770652
H -11.397216468775644 -9.291567563088087 6.445375354041206
H -10.362379213513465 -8.219274098590263 6.778292511479348
O -1.3756170423845324 -7.578960555403748 -9.087764338700035
H -1.7614361589377205 -8.46157381766893 -8.982385045308348
H -1.411817691717855 -7.199787976726611 -8.196765117113857
O -8.6869817616355 -1.3162337460613363 -5.775539987972613
H -8.942127002364526 -2.2506963755693485 -5.750086951094851
H -9.23547630000071 -0.943000940572186 -6.481806905356001
O 1.4990598558377748 8.140918157789692 6.956224131125446
H 1.9472057103690101 8.674015036849582 7.629975099587145
H 1.5612271344966127 8.67882361493017 6.152635372528958
O 1.2801657618593896 2.8021883945905253 -9.425911747376649
H 2.152801402308059 2.4578475281455985 -9.668612723095123
H 1.3197208468988526 2.880940066934716 -8.46092702539888
C 10.940143355607763 -7.139658037404285 -2.1975848070603807
O 10.345068146647055 -6.1012858183394405 -2.219650337978962
O 11.535218564568469 -8.178030256469132 -2.1755192761417996