146

C -5.3564454929577465 1.0091607042253532 -0.0734429577464788
C -4.079135492957747 0.16955070422535368 -0.19788295774647868
C -4.333545492957747 -1.2789292957746463 0.3017270422535212
C -3.1403854929577464 -2.1745492957746464 0.7330270422535212
C -2.905235492957746 0.902300704225353 0.41966704225352136
C -2.7423854929577463 1.056130704225354 1.8024770422535212
C -1.8861754929577463 1.3499307042253532 -0.4326129577464788
C -1.5304554929577463 1.5279207042253526 2.3254170422535214
H -3.5237954929577464 0.7301007042253529 2.484817042253521
C -0.6776454929577462 1.8010507042253527 0.08546704225352131
H -1.9759254929577463 1.2426607042253535 -1.5115229577464788
C -0.4680254929577463 1.8513207042253539 1.4698070422535212
H -1.3950654929577464 1.5446707042253527 3.404047042253521
H 0.1461845070422536 1.9972507042253538 -0.6030529577464789
C -1.8679654929577463 -2.0866092957746467 -0.08765295774647863
C -0.6628654929577462 -1.814079295774647 0.5787970422535212
C -1.8438954929577462 -2.213429295774647 -1.4808029577464787
C 0.5129345070422537 -1.5763292957746469 -0.13022295774647863
H -0.6401854929577462 -1.7032692957746463 1.6609470422535213
C -0.6547954929577462 -1.9962392957746466 -2.1933129577464787
H -2.7578654929577464 -2.4351492957746466 -2.026182957746479
C 0.5308845070422537 -1.645769295774647 -1.5261029577464789
H 1.4044045070422537 -1.2610992957746463 0.41551704225352126
H -0.6795654929577464 -2.0467992957746466 -3.2793129577464786
C 1.7843245070422535 -1.2521692957746469 -2.2771629577464787
H 1.4981245070422535 -0.9384492957746469 -3.290282957746479
H 2.241984507042254 -0.38631929577464685 -1.8135029577464787
C 0.9385645070422537 2.0647807042253534 1.9815670422535212
H 1.0508945070422537 1.5807407042253532 2.9609770422535213
H 1.6053245070422537 1.5496207042253536 1.3096170422535214
C 3.9676945070422533 -1.6881692957746468 -3.314052957746479
H 4.795084507042254 -2.398849295774647 -3.4044129577464783
H 3.548404507042253 -1.4816192957746468 -4.303802957746479
H 4.307714507042253 -0.7637192957746466 -2.851282957746479
C 2.344694507042253 -3.565079295774647 -3.101282957746479
H 1.6334345070422536 -4.047909295774646 -2.4251929577464786
H 1.8561845070422536 -3.293109295774647 -4.041792957746479
H 3.1808045070422537 -4.243519295774647 -3.298122957746479
C 3.5156645070422536 -2.648489295774647 -1.1110629577464786
H 3.9311845070422535 -1.748249295774647 -0.6771029577464787
H 2.767184507042254 -3.1044092957746465 -0.45972295774647876
H 4.319224507042254 -3.371819295774647 -1.2863129577464787
C 2.963994507042253 3.381090704225353 2.401027042253521
H 3.3337945070422537 4.369820704225353 2.6912870422535216
H 3.120994507042253 2.671350704225353 3.2183370422535216
H 3.4665445070422534 3.0664207042253535 1.4881370422535212
C 1.2973745070422538 4.282440704225354 0.8488370422535213
H 1.7592145070422538 3.7367207042253527 0.02653704225352116
H 0.23311450704225378 4.4484607042253534 0.6605570422535213
H 1.7921845070422535 5.251370704225354 0.9736770422535213
C 0.7724845070422537 4.194670704225353 3.2772470422535216
H -0.2956954929577462 4.278220704225354 3.057857042253521
H 0.9298945070422537 3.612620704225354 4.190337042253521
H 1.2046345070422537 5.193640704225353 3.3918370422535213
N 2.876084507042253 -2.324759295774647 -2.4576629577464786
N 1.4527845070422536 3.504690704225353 2.1388470422535213
C -3.593905492957746 -3.637819295774647 0.8297870422535213
H -2.8952554929577463 -1.8680692957746468 1.7595270422535212
H -5.022615492957747 -1.2402792957746467 1.1579970422535213
H -4.898275492957747 -1.7933092957746464 -0.48931295774647876
H -3.883675492957746 0.07871070422535364 -1.2758929577464788
H -3.8751654929577466 -4.038529295774646 -0.1505529577464788
H -4.4603554929577465 -3.7321892957746465 1.4932570422535212
H -2.7953554929577464 -4.271929295774647 1.2313670422535212
H -5.648775492957746 1.147700704225353 0.9733970422535213
H -6.189795492957747 0.5254307042253537 -0.5943629577464788
H -5.2178854929577465 2.002970704225354 -0.5139729577464787
C 3.6710445070422537 1.0263707042253536 -0.27764295774647874
O 2.7356545070422538 1.6631507042253526 -0.7327029577464788
O 3.650814507042253 0.3883007042253537 0.7790570422535212
O 4.756604507042254 0.8696707042253538 -0.8334829577464786
O 1.2648705174669352 13.3842424310431 9.169956374219264
H 1.1523216481340466 13.495418753481019 10.125958431874515
H 0.6568073397650989 12.664132454362754 8.944872528267203
O 2.0677583578975423 -13.183671600391602 -4.630721627640373
H 1.7187436644949607 -13.620615128626778 -5.422072658360939
H 1.437556811967705 -13.422321870835686 -3.934407040528621
O -13.079133491050204 -3.4863174160258823 4.984398540460889
H -13.45698081002106 -2.8443035345899648 5.604089541275105
H -12.63652350768218 -4.131203054479412 5.556395795908274
O 2.655301062046231 7.712866366402512 -9.795395833911286
H 3.138692053555754 8.391239060447708 -10.290482689120857
H 2.8711171490183713 7.9004472946437385 -8.86954554565503
O -4.904355045663748 4.620425309732748 4.008325029048579
H -5.290588238938746 4.911238235183209 4.848098283983233
H -3.952368243740115 4.590187622981954 4.186562947469925
O -3.459447624560659 9.029731275417394 2.1172069765468593
H -3.311701871857121 8.204371750441556 2.6029231529191583
H -4.253146603828332 8.85240607041545 1.5903676782020308
O -5.825211139401528 7.622913724207862 -4.968344714417566
H -6.015035965571273 6.790397764437115 -4.510249670789479
H -6.627312354637331 8.150500229362645 -4.837012827977865
O -3.9493016081871026 11.501361360006669 -1.061770479900968
H -3.9424013440002046 11.456125912566858 -0.09384822189205533
H -3.8947085139161346 10.574706646070684 -1.33978591022479
O -6.744641446486257 -3.4182400130059047 8.261525807984205
H -6.796203580847761 -3.2737264660779712 7.304747600689329
H -5.944348176829468 -3.9527312097469887 8.374714974640423
O 8.94409492354668 -7.615878950708842 1.9164196784994179
H 8.147030413881549 -8.001520474562277 2.310038960817095
H 9.559210860992698 -8.36206312847534 1.8547471509783087
O 5.463719114079966 -9.054614703882251 -2.6439636559769197
H 5.1409331599771315 -9.283872110283143 -3.528394335196191
H 5.937900678608962 -8.220084830607895 -2.7769060449035488
O 0.47807570927544596 4.296775371162481 -8.162176469015899
H 0.7540776307443693 4.340177431677937 -9.090026972808658
H 0.26230262297277207 5.214701901326672 -7.938984164605228
O -6.875185546917781 -4.519444164861898 1.1533208145808147
H -6.621143450934231 -4.747519938959311 0.246451798880007
H -7.813219385720638 -4.287072531181214 1.0822020025733983
O 14.98099036027005 3.040067845186598 4.563027944427619
H 15.79274990203955 3.341486916577092 4.128102264973918
H 14.275609513812046 3.3137851211680376 3.957653136082002
O 0.9921474806360542 3.800143930131796 -2.172863662607074
H 0.5653578145624811 3.257595720959407 -1.4928200033052295
H 1.9053474097335403 3.890074836926735 -1.8615113448071496
O 5.24832927988835 11.676583862801735 1.6050061117496899
H 5.89933299222556 10.982421177359921 1.4225240864338256
H 4.923114848336307 11.928923572940818 0.7277819736314974
O -6.626528747269461 -0.1647200206781425 -5.944571979150806
H -6.518786969230481 -0.2225713490867438 -6.905827559091104
H -7.288011823921648 -0.8432042157145065 -5.741936146464155
O 10.14121032322726 11.238758925016993 -10.111746633820438
H 11.066042460145377 11.18434569658003 -10.395810140794731
H 10.173256035912155 11.788237759492425 -9.314245519675739
O 2.0145706788955535 -2.6714415280279113 -8.73022087719068
H 2.1555203865097177 -2.1233852271160405 -9.516817869210279
H 1.051270172103414 -2.6890357799526803 -8.6267582258946
O -11.184731279038184 1.9825230140394527 5.88431860873417
H -11.3648818462527 1.0716552557647288 5.607130843910635
H -11.911111458527163 2.1905645895825003 6.490991899716331
O -8.572319550988638 9.074385521806565 2.5268896061409447
H -8.388196760858376 9.631685814359306 3.2979165440460205
H -7.753193468859958 9.11119435472555 2.010518116130446
O -1.5241420850404954 -6.57341227494759 -4.378353712415902
H -1.5590064685252292 -7.405292176158749 -4.874062963514912
H -1.7142709833409566 -6.836809054972707 -3.465427054571224
O -4.806626930642442 5.6897180083537755 -15.368817383576328
H -4.691601656714457 5.319636668295674 -16.25694819882743
H -4.266198482568843 5.116516473083468 -14.804601966579837
O -10.920411004844315 1.526386514862331 -4.381950667249305
H -10.714346344779479 1.702802934939303 -5.312209749171965
H -11.29031087434251 2.3627086177339383 -4.061480120874714
C 5.47853593062356 2.623863621028976 -0.26537497486402506
O 5.736947031482246 3.4621643422351998 -1.0798035236503059
O 5.220124829764875 1.785562899822752 0.5490535739222557