146

C -5.3564454929577465 1.0091607042253532 -0.0734429577464788
C -4.079135492957747 0.16955070422535368 -0.19788295774647868
C -4.333545492957747 -1.2789292957746463 0.3017270422535212
C -3.1403854929577464 -2.1745492957746464 0.7330270422535212
C -2.905235492957746 0.902300704225353 0.41966704225352136
C -2.7423854929577463 1.056130704225354 1.8024770422535212
C -1.8861754929577463 1.3499307042253532 -0.4326129577464788
C -1.5304554929577463 1.5279207042253526 2.3254170422535214
H -3.5237954929577464 0.7301007042253529 2.484817042253521
C -0.6776454929577462 1.8010507042253527 0.08546704225352131
H -1.9759254929577463 1.2426607042253535 -1.5115229577464788
C -0.4680254929577463 1.8513207042253539 1.4698070422535212
H -1.3950654929577464 1.5446707042253527 3.404047042253521
H 0.1461845070422536 1.9972507042253538 -0.6030529577464789
C -1.8679654929577463 -2.0866092957746467 -0.08765295774647863
C -0.6628654929577462 -1.814079295774647 0.5787970422535212
C -1.8438954929577462 -2.213429295774647 -1.4808029577464787
C 0.5129345070422537 -1.5763292957746469 -0.13022295774647863
H -0.6401854929577462 -1.7032692957746463 1.6609470422535213
C -0.6547954929577462 -1.9962392957746466 -2.1933129577464787
H -2.7578654929577464 -2.4351492957746466 -2.026182957746479
C 0.5308845070422537 -1.645769295774647 -1.5261029577464789
H 1.4044045070422537 -1.2610992957746463 0.41551704225352126
H -0.6795654929577464 -2.0467992957746466 -3.2793129577464786
C 1.7843245070422535 -1.2521692957746469 -2.2771629577464787
H 1.4981245070422535 -0.9384492957746469 -3.290282957746479
H 2.241984507042254 -0.38631929577464685 -1.8135029577464787
C 0.9385645070422537 2.0647807042253534 1.9815670422535212
H 1.0508945070422537 1.5807407042253532 2.9609770422535213
H 1.6053245070422537 1.5496207042253536 1.3096170422535214
C 3.9676945070422533 -1.6881692957746468 -3.314052957746479
H 4.795084507042254 -2.398849295774647 -3.4044129577464783
H 3.548404507042253 -1.4816192957746468 -4.303802957746479
H 4.307714507042253 -0.7637192957746466 -2.851282957746479
C 2.344694507042253 -3.565079295774647 -3.101282957746479
H 1.6334345070422536 -4.047909295774646 -2.4251929577464786
H 1.8561845070422536 -3.293109295774647 -4.041792957746479
H 3.1808045070422537 -4.243519295774647 -3.298122957746479
C 3.5156645070422536 -2.648489295774647 -1.1110629577464786
H 3.9311845070422535 -1.748249295774647 -0.6771029577464787
H 2.767184507042254 -3.1044092957746465 -0.45972295774647876
H 4.319224507042254 -3.371819295774647 -1.2863129577464787
C 2.963994507042253 3.381090704225353 2.401027042253521
H 3.3337945070422537 4.369820704225353 2.6912870422535216
H 3.120994507042253 2.671350704225353 3.2183370422535216
H 3.4665445070422534 3.0664207042253535 1.4881370422535212
C 1.2973745070422538 4.282440704225354 0.8488370422535213
H 1.7592145070422538 3.7367207042253527 0.02653704225352116
H 0.23311450704225378 4.4484607042253534 0.6605570422535213
H 1.7921845070422535 5.251370704225354 0.9736770422535213
C 0.7724845070422537 4.194670704225353 3.2772470422535216
H -0.2956954929577462 4.278220704225354 3.057857042253521
H 0.9298945070422537 3.612620704225354 4.190337042253521
H 1.2046345070422537 5.193640704225353 3.3918370422535213
N 2.876084507042253 -2.324759295774647 -2.4576629577464786
N 1.4527845070422536 3.504690704225353 2.1388470422535213
C -3.593905492957746 -3.637819295774647 0.8297870422535213
H -2.8952554929577463 -1.8680692957746468 1.7595270422535212
H -5.022615492957747 -1.2402792957746467 1.1579970422535213
H -4.898275492957747 -1.7933092957746464 -0.48931295774647876
H -3.883675492957746 0.07871070422535364 -1.2758929577464788
H -3.8751654929577466 -4.038529295774646 -0.1505529577464788
H -4.4603554929577465 -3.7321892957746465 1.4932570422535212
H -2.7953554929577464 -4.271929295774647 1.2313670422535212
H -5.648775492957746 1.147700704225353 0.9733970422535213
H -6.189795492957747 0.5254307042253537 -0.5943629577464788
H -5.2178854929577465 2.002970704225354 -0.5139729577464787
C 3.6710445070422537 1.0263707042253536 -0.27764295774647874
O 2.7356545070422538 1.6631507042253526 -0.7327029577464788
O 3.650814507042253 0.3883007042253537 0.7790570422535212
O 4.756604507042254 0.8696707042253538 -0.8334829577464786
O -10.046117055686539 4.780875965205715 -10.437746801704586
H -10.266302939349139 4.714130432538531 -11.379038768845865
H -9.718399710609498 5.687275262429008 -10.337728803180449
O -11.338829451813368 -4.566812815786607 -7.412026017409104
H -12.21130305318841 -4.161231875969047 -7.527183618375668
H -11.525473745123985 -5.394762088027771 -6.944451579838029
O 2.483448551753865 -2.762987352918702 7.340829967718992
H 2.2870018269365104 -2.5325189990215566 6.420362489173185
H 1.9422771255049416 -2.146821610976646 7.8570035917726635
O 8.059889152067957 -4.425035219590887 -2.6776220245391213
H 8.122647440029386 -4.052441792004474 -1.7853200062114922
H 8.932345793786814 -4.818639776051859 -2.828806698874237
O 5.322406306683752 -3.684237747985404 -5.056814465529999
H 5.4230155179958555 -3.3065264788231894 -5.943482013513473
H 5.514476862654332 -2.9427094880357902 -4.4633444279331105
O -10.62433656774185 -6.396557462542271 1.7194626772118409
H -10.98101333009418 -6.710486936175089 0.874952564967777
H -11.124029124550669 -6.894157030913257 2.3840407106487542
O 3.4963356808836332 8.989576851391408 6.8168973136600925
H 3.5811317635062725 8.984713547727878 7.782171020724225
H 4.410360542963401 8.926850906500823 6.501324894653544
O -12.086453314019158 -0.6123532294203979 2.6895824523778358
H -12.184252738883886 -0.8521985519370139 3.623325913218677
H -12.108570380478456 -1.462918754445739 2.2258895935697653
O -4.883089465375434 6.885607550682303 -5.584463796838603
H -4.181479566502127 7.475421528327037 -5.898836789441157
H -4.4115473225955215 6.216656295223548 -5.065701645460262
O 4.271394264497714 7.101480467583363 -10.328958060885277
H 4.317611700076101 6.959834720188033 -11.286437975971426
H 4.359918048755609 8.061321170599 -10.229805104524369
O -5.6939275308609405 7.568320851821727 7.4547558624270485
H -6.025981242784323 7.203862655890233 6.62056289151668
H -4.883328827938057 8.034346536026876 7.200370822024002
O 0.3156771537081431 -1.2469582746333876 -12.12293629136634
H 0.8390177907556196 -1.8231028908196167 -12.700118511946952
H -0.596969760647996 -1.539954842827135 -12.265029799461907
O -4.4498291306043205 -1.0280252494552493 -3.6589434930027362
H -4.279578625439984 -1.3382471298938363 -2.7568656098416224
H -5.309422857040565 -1.4159776847013152 -3.881549597496967
O 1.0408187302340783 -7.302688048802499 -4.822606227942804
H 0.5820721139281825 -7.8828483089499155 -5.448651730660916
H 1.6218495477771233 -6.766570353231093 -5.382912349505351
O 6.0807439810738035 -6.2485707485440045 7.113981139948904
H 6.515966259481855 -5.830346056200547 6.355932967342752
H 5.135491469103344 -6.145426622069809 6.927377490232692
O -13.513445962334014 7.026155067024753 -3.17544520851121
H -14.098760408614691 7.1577802888026465 -3.936398003937488
H -13.309441622708873 6.079143959002785 -3.1981197536469574
O -3.1948862907494853 10.714652515182305 -2.5174437781206374
H -3.5900986348337303 10.719028766970503 -3.402178432355297
H -2.313936744867204 10.33576396032664 -2.6564880333388525
O 2.5946156780446135 -7.467774410307417 10.482867962660336
H 2.7934503416082257 -8.414564384577734 10.537830477948127
H 2.5169413937324725 -7.190820910610646 11.40819245107632
O -1.319787146606465 -4.07204104481143 5.639663715465199
H -1.348877218613044 -4.088053295524379 6.608097880722579
H -1.1044927816045924 -3.1514701381621997 5.427156100238228
O -8.947740728457214 6.804167626498492 -3.8125347749166694
H -9.867244808833078 7.032909494348673 -3.6096634832942476
H -8.728667281986203 7.365994786148594 -4.571032640458038
O -7.600638313855088 -1.8186187649362506 0.6619928799456047
H -6.699346518867469 -1.781834000994053 1.0159523950454474
H -8.141891106944865 -2.0696746956200256 1.4255230220755788
O -0.6034853338263853 10.89221841318168 9.871129297062328
H -0.04635174457247626 11.079017997909293 10.641632662253325
H -0.8415962585430405 9.958718718090331 9.975261189847103
O -11.94540467256141 -4.298121947046288 -2.901858368932517
H -11.620697309515364 -4.372340166536056 -3.811816687307295
H -12.45428763245979 -3.473500871480301 -2.9014594235052886
O -7.794957259311541 4.161464638819293 -0.40110032972231835
H -6.909241377418121 4.456678788705029 -0.660567744187035
H -8.363429267210599 4.919107465420651 -0.6054991257919635
C 10.935500082986136 -2.9131024548654505 7.216527092127103
O 10.19613953691798 -1.9727259454880914 7.173442746605161
O 11.67486062905429 -3.853478964242808 7.2596114376490455