146

C -5.3564454929577465 1.0091607042253532 -0.0734429577464788
C -4.079135492957747 0.16955070422535368 -0.19788295774647868
C -4.333545492957747 -1.2789292957746463 0.3017270422535212
C -3.1403854929577464 -2.1745492957746464 0.7330270422535212
C -2.905235492957746 0.902300704225353 0.41966704225352136
C -2.7423854929577463 1.056130704225354 1.8024770422535212
C -1.8861754929577463 1.3499307042253532 -0.4326129577464788
C -1.5304554929577463 1.5279207042253526 2.3254170422535214
H -3.5237954929577464 0.7301007042253529 2.484817042253521
C -0.6776454929577462 1.8010507042253527 0.08546704225352131
H -1.9759254929577463 1.2426607042253535 -1.5115229577464788
C -0.4680254929577463 1.8513207042253539 1.4698070422535212
H -1.3950654929577464 1.5446707042253527 3.404047042253521
H 0.1461845070422536 1.9972507042253538 -0.6030529577464789
C -1.8679654929577463 -2.0866092957746467 -0.08765295774647863
C -0.6628654929577462 -1.814079295774647 0.5787970422535212
C -1.8438954929577462 -2.213429295774647 -1.4808029577464787
C 0.5129345070422537 -1.5763292957746469 -0.13022295774647863
H -0.6401854929577462 -1.7032692957746463 1.6609470422535213
C -0.6547954929577462 -1.9962392957746466 -2.1933129577464787
H -2.7578654929577464 -2.4351492957746466 -2.026182957746479
C 0.5308845070422537 -1.645769295774647 -1.5261029577464789
H 1.4044045070422537 -1.2610992957746463 0.41551704225352126
H -0.6795654929577464 -2.0467992957746466 -3.2793129577464786
C 1.7843245070422535 -1.2521692957746469 -2.2771629577464787
H 1.4981245070422535 -0.9384492957746469 -3.290282957746479
H 2.241984507042254 -0.38631929577464685 -1.8135029577464787
C 0.9385645070422537 2.0647807042253534 1.9815670422535212
H 1.0508945070422537 1.5807407042253532 2.9609770422535213
H 1.6053245070422537 1.5496207042253536 1.3096170422535214
C 3.9676945070422533 -1.6881692957746468 -3.314052957746479
H 4.795084507042254 -2.398849295774647 -3.4044129577464783
H 3.548404507042253 -1.4816192957746468 -4.303802957746479
H 4.307714507042253 -0.7637192957746466 -2.851282957746479
C 2.344694507042253 -3.565079295774647 -3.101282957746479
H 1.6334345070422536 -4.047909295774646 -2.4251929577464786
H 1.8561845070422536 -3.293109295774647 -4.041792957746479
H 3.1808045070422537 -4.243519295774647 -3.298122957746479
C 3.5156645070422536 -2.648489295774647 -1.1110629577464786
H 3.9311845070422535 -1.748249295774647 -0.6771029577464787
H 2.767184507042254 -3.1044092957746465 -0.45972295774647876
H 4.319224507042254 -3.371819295774647 -1.2863129577464787
C 2.963994507042253 3.381090704225353 2.401027042253521
H 3.3337945070422537 4.369820704225353 2.6912870422535216
H 3.120994507042253 2.671350704225353 3.2183370422535216
H 3.4665445070422534 3.0664207042253535 1.4881370422535212
C 1.2973745070422538 4.282440704225354 0.8488370422535213
H 1.7592145070422538 3.7367207042253527 0.02653704225352116
H 0.23311450704225378 4.4484607042253534 0.6605570422535213
H 1.7921845070422535 5.251370704225354 0.9736770422535213
C 0.7724845070422537 4.194670704225353 3.2772470422535216
H -0.2956954929577462 4.278220704225354 3.057857042253521
H 0.9298945070422537 3.612620704225354 4.190337042253521
H 1.2046345070422537 5.193640704225353 3.3918370422535213
N 2.876084507042253 -2.324759295774647 -2.4576629577464786
N 1.4527845070422536 3.504690704225353 2.1388470422535213
C -3.593905492957746 -3.637819295774647 0.8297870422535213
H -2.8952554929577463 -1.8680692957746468 1.7595270422535212
H -5.022615492957747 -1.2402792957746467 1.1579970422535213
H -4.898275492957747 -1.7933092957746464 -0.48931295774647876
H -3.883675492957746 0.07871070422535364 -1.2758929577464788
H -3.8751654929577466 -4.038529295774646 -0.1505529577464788
H -4.4603554929577465 -3.7321892957746465 1.4932570422535212
H -2.7953554929577464 -4.271929295774647 1.2313670422535212
H -5.648775492957746 1.147700704225353 0.9733970422535213
H -6.189795492957747 0.5254307042253537 -0.5943629577464788
H -5.2178854929577465 2.002970704225354 -0.5139729577464787
C 3.6710445070422537 1.0263707042253536 -0.27764295774647874
O 2.7356545070422538 1.6631507042253526 -0.7327029577464788
O 3.650814507042253 0.3883007042253537 0.7790570422535212
O 4.756604507042254 0.8696707042253538 -0.8334829577464786
O 2.823978360078396 -7.788531834934007 3.400691108721012
H 3.089648578397626 -7.291686291838335 2.6123186090077217
H 2.3055834187581543 -8.527367658763069 3.048057794156986
O 6.659303394201918 -3.9403377100661507 8.794403777391517
H 7.196336682882249 -3.7589186519093163 9.580310724228532
H 7.279082836867158 -4.360388432288192 8.17926738803522
O 3.9858611340452814 -3.2366346643519903 11.506378651244058
H 3.929664661035322 -3.182315406207665 12.472224773313142
H 3.711768472512624 -4.144349785344593 11.306657805273165
O -2.914137398363196 -5.711842653103206 9.476270030556947
H -3.269315989546457 -4.966277984754322 8.969368806870424
H -2.8636963505426305 -6.4317008071987 8.829569262831264
O 4.565771004316113 1.6343404894924163 -4.979684217510611
H 4.535497095273468 2.5746630346945016 -4.747640345977767
H 5.384012495213485 1.5456987976916854 -5.4911384748482055
O 9.556175064367647 6.925307567110014 4.539910814373633
H 9.371544444824716 6.541552023168226 5.410319094275162
H 10.4460492029547 7.297551059159729 4.632218692697099
O -6.341518353259815 -2.371402034385549 3.1191062371506746
H -6.647272426162807 -2.56381790897057 2.219963348055223
H -5.447628676592537 -2.0195642557747355 2.992089042291575
O 9.579258139377462 1.3545476430135945 -3.7073220620896086
H 8.925971527927196 0.775317422900806 -4.127650876600248
H 10.314495893672815 1.3746607761622907 -4.33818088213865
O 9.787366366193233 -5.542923189509236 4.6526985336985565
H 10.174342047984078 -5.32085786144037 3.792521709625634
H 10.530983063383104 -5.905303697330114 5.157353385564571
O 1.2972984409442552 -6.511805415754317 -12.13648518243045
H 1.5476017736015604 -6.541594421361492 -13.072128390980366
H 1.0770571293623088 -7.431148279310188 -11.923730844750688
O -2.80006519032794 -4.727029378473028 -2.3212932857005715
H -2.8281999898378443 -4.906783691850247 -1.3695243133239645
H -2.0425703639568766 -4.131664606803092 -2.4247549741435734
O 4.703747214405473 -6.910564525800765 5.306612302523948
H 5.475910208895563 -7.36383925445685 5.677116941093902
H 4.296187413897 -6.478616274978973 6.072300007741608
O -5.839361542726232 -5.094625511481235 -7.630565588882929
H -6.2086025627692205 -5.443473471064903 -6.805378623939877
H -5.741248681930351 -4.145746651198871 -7.4603753442868115
O -6.389329414632529 -4.778991133791703 2.167860449471095
H -6.906088489608914 -5.582450783164057 2.0054412167429314
H -6.967174243841802 -4.063409639340371 1.8629007431902393
O -6.905200537429759 0.9469969121106578 6.603214898918152
H -7.502356360548447 1.1708534343043855 5.873653018549685
H -6.1719425098445475 0.48328805411118536 6.171626316707422
O 0.9473346961580242 -7.220735149274006 6.435681326087688
H 1.5533923589716263 -7.770818847530982 6.954400316637334
H 0.27146374478847424 -7.843219728827092 6.127990979125947
O 14.46135146809624 2.634046468801255 0.4325291066067356
H 15.214231666236568 2.27024225854491 0.9222078387852317
H 13.751442883778527 1.9921199490293018 0.5839295340350956
O 4.44250357725765 8.5257830569819 -5.415395731256168
H 5.261723595210086 8.849229393703446 -5.01138040190909
H 4.5803957428794355 8.661352567851777 -6.364905395600158
O 6.6958208782279645 -0.46977016772852487 -9.856828084986695
H 7.565327235091178 -0.04279566528372358 -9.83195186066552
H 6.123936512244653 0.13472363610325022 -9.360342982115665
O -10.424216872537897 -4.189664989565806 1.6112150740919846
H -10.471987860108968 -3.5156641845630805 0.9166589536077119
H -11.317614952577152 -4.564090359127986 1.635861727219571
O 0.0721887956714764 3.9606725236762035 -14.10458480312096
H -0.36421807199281275 3.8351681028263713 -14.960601767381949
H -0.4576849701806145 4.645708584557068 -13.669933987115114
O -8.041302311310297 -6.507011671154373 0.4328601469204765
H -8.936394881074708 -6.218793988429563 0.666755883985696
H -7.465714348963919 -5.9433661694964535 0.9713433781939647
O 1.7041708637180255 10.237907855967403 -3.8686426270076844
H 1.0767536325488247 9.546404373498362 -4.127752466004903
H 1.715489063984052 10.192950315557521 -2.900751795248734
O 8.470326294983405 -6.547356627671302 4.170652086298223
H 7.912164162861306 -7.006321169168596 3.5250717730814296
H 7.9489808130635184 -5.769443489839372 4.4196741390770935
C -13.635683803151839 -4.321624227290098 0.900457536536218
O -12.68480487018417 -4.874626913353275 0.42840294081112695
O -14.586562736119507 -3.768621541226921 1.372512132261309