146

C -5.3564454929577465 1.0091607042253532 -0.0734429577464788
C -4.079135492957747 0.16955070422535368 -0.19788295774647868
C -4.333545492957747 -1.2789292957746463 0.3017270422535212
C -3.1403854929577464 -2.1745492957746464 0.7330270422535212
C -2.905235492957746 0.902300704225353 0.41966704225352136
C -2.7423854929577463 1.056130704225354 1.8024770422535212
C -1.8861754929577463 1.3499307042253532 -0.4326129577464788
C -1.5304554929577463 1.5279207042253526 2.3254170422535214
H -3.5237954929577464 0.7301007042253529 2.484817042253521
C -0.6776454929577462 1.8010507042253527 0.08546704225352131
H -1.9759254929577463 1.2426607042253535 -1.5115229577464788
C -0.4680254929577463 1.8513207042253539 1.4698070422535212
H -1.3950654929577464 1.5446707042253527 3.404047042253521
H 0.1461845070422536 1.9972507042253538 -0.6030529577464789
C -1.8679654929577463 -2.0866092957746467 -0.08765295774647863
C -0.6628654929577462 -1.814079295774647 0.5787970422535212
C -1.8438954929577462 -2.213429295774647 -1.4808029577464787
C 0.5129345070422537 -1.5763292957746469 -0.13022295774647863
H -0.6401854929577462 -1.7032692957746463 1.6609470422535213
C -0.6547954929577462 -1.9962392957746466 -2.1933129577464787
H -2.7578654929577464 -2.4351492957746466 -2.026182957746479
C 0.5308845070422537 -1.645769295774647 -1.5261029577464789
H 1.4044045070422537 -1.2610992957746463 0.41551704225352126
H -0.6795654929577464 -2.0467992957746466 -3.2793129577464786
C 1.7843245070422535 -1.2521692957746469 -2.2771629577464787
H 1.4981245070422535 -0.9384492957746469 -3.290282957746479
H 2.241984507042254 -0.38631929577464685 -1.8135029577464787
C 0.9385645070422537 2.0647807042253534 1.9815670422535212
H 1.0508945070422537 1.5807407042253532 2.9609770422535213
H 1.6053245070422537 1.5496207042253536 1.3096170422535214
C 3.9676945070422533 -1.6881692957746468 -3.314052957746479
H 4.795084507042254 -2.398849295774647 -3.4044129577464783
H 3.548404507042253 -1.4816192957746468 -4.303802957746479
H 4.307714507042253 -0.7637192957746466 -2.851282957746479
C 2.344694507042253 -3.565079295774647 -3.101282957746479
H 1.6334345070422536 -4.047909295774646 -2.4251929577464786
H 1.8561845070422536 -3.293109295774647 -4.041792957746479
H 3.1808045070422537 -4.243519295774647 -3.298122957746479
C 3.5156645070422536 -2.648489295774647 -1.1110629577464786
H 3.9311845070422535 -1.748249295774647 -0.6771029577464787
H 2.767184507042254 -3.1044092957746465 -0.45972295774647876
H 4.319224507042254 -3.371819295774647 -1.2863129577464787
C 2.963994507042253 3.381090704225353 2.401027042253521
H 3.3337945070422537 4.369820704225353 2.6912870422535216
H 3.120994507042253 2.671350704225353 3.2183370422535216
H 3.4665445070422534 3.0664207042253535 1.4881370422535212
C 1.2973745070422538 4.282440704225354 0.8488370422535213
H 1.7592145070422538 3.7367207042253527 0.02653704225352116
H 0.23311450704225378 4.4484607042253534 0.6605570422535213
H 1.7921845070422535 5.251370704225354 0.9736770422535213
C 0.7724845070422537 4.194670704225353 3.2772470422535216
H -0.2956954929577462 4.278220704225354 3.057857042253521
H 0.9298945070422537 3.612620704225354 4.190337042253521
H 1.2046345070422537 5.193640704225353 3.3918370422535213
N 2.876084507042253 -2.324759295774647 -2.4576629577464786
N 1.4527845070422536 3.504690704225353 2.1388470422535213
C -3.593905492957746 -3.637819295774647 0.8297870422535213
H -2.8952554929577463 -1.8680692957746468 1.7595270422535212
H -5.022615492957747 -1.2402792957746467 1.1579970422535213
H -4.898275492957747 -1.7933092957746464 -0.48931295774647876
H -3.883675492957746 0.07871070422535364 -1.2758929577464788
H -3.8751654929577466 -4.038529295774646 -0.1505529577464788
H -4.4603554929577465 -3.7321892957746465 1.4932570422535212
H -2.7953554929577464 -4.271929295774647 1.2313670422535212
H -5.648775492957746 1.147700704225353 0.9733970422535213
H -6.189795492957747 0.5254307042253537 -0.5943629577464788
H -5.2178854929577465 2.002970704225354 -0.5139729577464787
C 3.6710445070422537 1.0263707042253536 -0.27764295774647874
O 2.7356545070422538 1.6631507042253526 -0.7327029577464788
O 3.650814507042253 0.3883007042253537 0.7790570422535212
O 4.756604507042254 0.8696707042253538 -0.8334829577464786
O -3.17912505787417 0.33409733679617126 11.361855146959133
H -2.749382974659479 0.31155071905430454 12.230060623124022
H -2.819465578351547 1.1305930654928225 10.943284296018092
O -10.311050512727999 1.249662194529809 8.801300730827183
H -10.54194733671027 0.7752632303398044 9.614073538166572
H -11.110456427702214 1.1851116645641184 8.257475982874881
O 2.160309090054347 -11.302987519683683 -2.266985451550698
H 3.007217101862525 -11.222205062842804 -2.7308694576361323
H 1.5118485874523238 -11.40515414186694 -2.97974270488229
O -5.675828701285016 0.6519218101372939 9.369031007212932
H -6.336286793807714 0.8473655915689733 8.687441546304852
H -6.203322095506942 0.3787387882054185 10.134592043238408
O -2.743096630782197 7.820378510726712 10.32339675472604
H -2.7411237695441844 7.780607373233851 11.29158151051445
H -3.660633664836761 7.622296703340689 10.082873714205926
O -8.277949592825559 6.975277949672252 -6.705253934863273
H -8.400177736013307 7.008786139944693 -5.744574571549195
H -7.3701825085188055 7.287738573553124 -6.836742426653198
O -1.2087476869414946 2.865557880389439 -7.4502093985450815
H -1.5116062145012172 2.764083399704049 -8.365057472792378
H -1.2405946527121332 3.8219734754075025 -7.2978383885810905
O -0.5213176561330854 5.0700021560123485 -7.044938984993652
H -0.5298099846811088 5.281064683471022 -6.099239325081167
H -0.4079594498790877 5.930510214087134 -7.4757959721288705
O 12.993120722148095 0.28388407126081905 6.8845586110454455
H 12.761868711961242 0.9479501352398918 6.21784568380023
H 12.379249425945456 -0.4455337479119885 6.711141134787491
O -1.9126214737017582 -11.755041487690391 1.2697793800510295
H -2.3322966400432352 -12.615362487462253 1.1191543854193347
H -1.9950526720628068 -11.618544347218606 2.2255699284871335
O 4.703063047671643 6.539425007424949 -3.6783436658350603
H 4.642073338779166 6.566474555392408 -4.645047309287369
H 4.025688488621624 5.896889421987787 -3.4189719779068795
O -5.302370628218796 -2.038006770501462 4.829970004223865
H -5.385837675428675 -1.3293432021891938 4.174381294835893
H -4.3853665414290255 -1.9677325511756583 5.135137144016157
O -1.9193364779754298 6.538154333471132 -12.124240097641577
H -1.720915195700372 6.50690169492781 -13.072195594605653
H -1.872880686030649 7.481196523844336 -11.906351982153623
O 2.5099965258178925 -10.493203610240137 -6.1392087317670185
H 1.9377094582265855 -10.538710260278014 -5.358578208427025
H 3.3534059282727076 -10.858863116156812 -5.832752128177566
O 7.988758189979684 3.0327365925491767 -9.049979479883682
H 8.045548338781131 3.958518224180591 -9.330462289397898
H 7.362930764537711 2.6368062111795347 -9.674912365058692
O -8.633975617821976 7.145568645250808 1.664288009633328
H -9.126687062629232 6.798810101992071 0.9053668663430476
H -7.719381173725522 7.192981378059132 1.3476952429826266
O -0.9687727476175607 -5.92580112225995 4.979549338105632
H -0.8676173654514483 -5.8916708307344425 4.016444946692524
H -1.6303078970682379 -5.243771190216835 5.1697291533819465
O 5.508707491711661 -3.477393286838073 -0.35469574981766483
H 6.273496177151053 -2.882945724785414 -0.38111013024839435
H 5.896024759756481 -4.34982274487338 -0.18792009533980902
O -9.212215516174492 -0.31808249049714377 -1.8428466193628013
H -8.803642914704465 0.18024331109223013 -1.119170461334693
H -8.522726093185394 -0.9417019804561648 -2.116095611363523
O 5.278144212558422 -1.3223851573032166 0.7944384782708067
H 5.222349261723853 -0.8986291705423166 1.6640850409879056
H 4.695174178452581 -2.092557861336296 0.8715221315120074
O 9.52512228028438 5.312482708253222 -2.5364254599683966
H 9.397279792710524 5.3964865648262 -1.5795728028932354
H 8.766592378595009 5.781059852991073 -2.9159380315288597
O -0.7688247818253515 -5.134131633872092 -6.1574691533822765
H -0.6798772872665884 -5.0703397647273905 -7.120270429629221
H -0.13030043454170004 -4.488039684877351 -5.820106150564594
O 12.400202848578607 -1.4928476403628652 3.4430104392220344
H 11.619461813259388 -1.890921687155167 3.856468836088122
H 12.707824025522665 -0.8472756037842257 4.096897204176992
O 11.099141751474503 -6.550093917080648 0.8883303729268821
H 10.503220960329081 -7.284844883316305 1.0980606406432587
H 10.532384561130716 -5.766049893920899 0.9433140181415309
C -1.3843470861135503 9.690011893068558 10.160271544105408
O -1.2306323759116058 9.542929054801636 8.982325584455781
O -1.5380617963154941 9.83709473133548 11.338217503755036