146

C -5.3564454929577465 1.0091607042253532 -0.0734429577464788
C -4.079135492957747 0.16955070422535368 -0.19788295774647868
C -4.333545492957747 -1.2789292957746463 0.3017270422535212
C -3.1403854929577464 -2.1745492957746464 0.7330270422535212
C -2.905235492957746 0.902300704225353 0.41966704225352136
C -2.7423854929577463 1.056130704225354 1.8024770422535212
C -1.8861754929577463 1.3499307042253532 -0.4326129577464788
C -1.5304554929577463 1.5279207042253526 2.3254170422535214
H -3.5237954929577464 0.7301007042253529 2.484817042253521
C -0.6776454929577462 1.8010507042253527 0.08546704225352131
H -1.9759254929577463 1.2426607042253535 -1.5115229577464788
C -0.4680254929577463 1.8513207042253539 1.4698070422535212
H -1.3950654929577464 1.5446707042253527 3.404047042253521
H 0.1461845070422536 1.9972507042253538 -0.6030529577464789
C -1.8679654929577463 -2.0866092957746467 -0.08765295774647863
C -0.6628654929577462 -1.814079295774647 0.5787970422535212
C -1.8438954929577462 -2.213429295774647 -1.4808029577464787
C 0.5129345070422537 -1.5763292957746469 -0.13022295774647863
H -0.6401854929577462 -1.7032692957746463 1.6609470422535213
C -0.6547954929577462 -1.9962392957746466 -2.1933129577464787
H -2.7578654929577464 -2.4351492957746466 -2.026182957746479
C 0.5308845070422537 -1.645769295774647 -1.5261029577464789
H 1.4044045070422537 -1.2610992957746463 0.41551704225352126
H -0.6795654929577464 -2.0467992957746466 -3.2793129577464786
C 1.7843245070422535 -1.2521692957746469 -2.2771629577464787
H 1.4981245070422535 -0.9384492957746469 -3.290282957746479
H 2.241984507042254 -0.38631929577464685 -1.8135029577464787
C 0.9385645070422537 2.0647807042253534 1.9815670422535212
H 1.0508945070422537 1.5807407042253532 2.9609770422535213
H 1.6053245070422537 1.5496207042253536 1.3096170422535214
C 3.9676945070422533 -1.6881692957746468 -3.314052957746479
H 4.795084507042254 -2.398849295774647 -3.4044129577464783
H 3.548404507042253 -1.4816192957746468 -4.303802957746479
H 4.307714507042253 -0.7637192957746466 -2.851282957746479
C 2.344694507042253 -3.565079295774647 -3.101282957746479
H 1.6334345070422536 -4.047909295774646 -2.4251929577464786
H 1.8561845070422536 -3.293109295774647 -4.041792957746479
H 3.1808045070422537 -4.243519295774647 -3.298122957746479
C 3.5156645070422536 -2.648489295774647 -1.1110629577464786
H 3.9311845070422535 -1.748249295774647 -0.6771029577464787
H 2.767184507042254 -3.1044092957746465 -0.45972295774647876
H 4.319224507042254 -3.371819295774647 -1.2863129577464787
C 2.963994507042253 3.381090704225353 2.401027042253521
H 3.3337945070422537 4.369820704225353 2.6912870422535216
H 3.120994507042253 2.671350704225353 3.2183370422535216
H 3.4665445070422534 3.0664207042253535 1.4881370422535212
C 1.2973745070422538 4.282440704225354 0.8488370422535213
H 1.7592145070422538 3.7367207042253527 0.02653704225352116
H 0.23311450704225378 4.4484607042253534 0.6605570422535213
H 1.7921845070422535 5.251370704225354 0.9736770422535213
C 0.7724845070422537 4.194670704225353 3.2772470422535216
H -0.2956954929577462 4.278220704225354 3.057857042253521
H 0.9298945070422537 3.612620704225354 4.190337042253521
H 1.2046345070422537 5.193640704225353 3.3918370422535213
N 2.876084507042253 -2.324759295774647 -2.4576629577464786
N 1.4527845070422536 3.504690704225353 2.1388470422535213
C -3.593905492957746 -3.637819295774647 0.8297870422535213
H -2.8952554929577463 -1.8680692957746468 1.7595270422535212
H -5.022615492957747 -1.2402792957746467 1.1579970422535213
H -4.898275492957747 -1.7933092957746464 -0.48931295774647876
H -3.883675492957746 0.07871070422535364 -1.2758929577464788
H -3.8751654929577466 -4.038529295774646 -0.1505529577464788
H -4.4603554929577465 -3.7321892957746465 1.4932570422535212
H -2.7953554929577464 -4.271929295774647 1.2313670422535212
H -5.648775492957746 1.147700704225353 0.9733970422535213
H -6.189795492957747 0.5254307042253537 -0.5943629577464788
H -5.2178854929577465 2.002970704225354 -0.5139729577464787
C 3.6710445070422537 1.0263707042253536 -0.27764295774647874
O 2.7356545070422538 1.6631507042253526 -0.7327029577464788
O 3.650814507042253 0.3883007042253537 0.7790570422535212
O 4.756604507042254 0.8696707042253538 -0.8334829577464786
O 10.349363328594848 1.2487225618098388 0.24107070235060069
H 11.292824704772787 1.1673528439351422 0.035578713277001794
H 10.158528329622435 0.4654945707393132 0.7787489160349814
O -1.69948590493399 -11.063064690569691 10.95523007566112
H -1.027206522132236 -11.474385916437608 11.518987680940382
H -1.66103003683184 -11.575114429512402 10.13347089234936
O 16.47206768524046 3.0960914586404096 -6.202843310468149
H 16.81111920556504 3.1343338502568026 -7.109788150548874
H 15.879110897055858 3.8600873095652153 -6.142225397146428
O 6.179858403055462 6.943920463397082 -4.761542417642821
H 6.265397380800453 7.087209301031771 -5.716067822855089
H 7.079548415170867 7.069850617150053 -4.424405319750088
O -5.305006256306807 0.9761982056231848 7.433026536434133
H -5.775612849287433 1.6020228643952423 6.862202318293376
H -4.5066900826970135 1.456721496631677 7.699016382201574
O -5.7720475225522625 -1.6233063772806262 7.440586194977022
H -5.627860573532778 -2.3031999632157714 6.765366088317939
H -6.711344542486815 -1.401924797881179 7.352989112008049
O 2.0086094560818237 7.085793822784723 0.23154994363696652
H 1.9770539098660977 7.772788648058151 0.9141989855688807
H 2.8929534785183924 7.178856341519673 -0.15346559096834778
O 0.5895013495349981 8.833350403880011 -5.263767768021481
H 0.7274542093920897 9.000941486343939 -4.3193898805019675
H 0.6856130371568003 7.872770906966313 -5.347502575070385
O -0.474860246848007 2.7137723765050974 9.646143050264026
H -1.4028412879891237 2.84898120629103 9.890145338225777
H -0.10972038419295041 2.2063312221996414 10.386506677083574
O 1.0006447750001926 -6.085991664119146 5.5416425100996225
H 0.57416862780052 -6.698645468201298 6.1594942472610485
H 1.1748219693397703 -5.297242997704483 6.076899262043103
O -6.5536659748667185 -7.3838762970836385 -1.0570993783486449
H -6.558530946522269 -7.3753313130577975 -0.08814598824219105
H -5.820702091517143 -7.97635126743978 -1.2822644278270188
O -4.721957677031868 -5.540796776901287 -2.6729900752439706
H -4.4758472651096435 -5.5366563811427385 -1.7357708483997722
H -4.764024327205368 -6.481943962527192 -2.899781424795968
O 0.8875140083877868 -9.860613282211467 5.541414523950704
H 1.1093867135068862 -9.618678271864038 4.6297088091549
H 0.7505617724472367 -9.00894709533744 5.982856179785695
O -9.306014390326107 -1.4007476494619562 -12.624850179813947
H -9.382852710647269 -1.901467435501857 -13.450890690502362
H -9.332601231704668 -0.47476213048750004 -12.909113970710921
O -6.467750599713827 -2.236846240730638 2.8113694322445215
H -7.253556228709976 -1.831135416017223 2.4152941905942407
H -6.629474224627662 -2.178151740828329 3.764974365708032
O -3.112998469125762 9.771127869017546 5.919580273858585
H -3.0915100567896503 8.873859418777 6.28484036370992
H -4.052952209047257 10.006295019380708 5.9316352519864655
O 1.7190999074690643 -7.326132458623277 -8.054575373573016
H 1.4307682728916729 -8.034795878181336 -8.649241988729955
H 1.4318266208263928 -7.624352203710373 -7.178504037024613
O -0.6922642820028111 -2.2565440331931748 -11.808166806731768
H -0.9407479979183027 -3.034252651843988 -12.330079159815188
H -0.6901344774151408 -1.5330259542273597 -12.45274341012506
O -1.8948274807803176 4.750099153247222 -5.419244391722977
H -0.9765957394068592 4.45031494576384 -5.496362839437044
H -1.842746458299796 5.705529428724084 -5.572223148743646
O -4.666551915579822 -2.3703119478746126 -8.6366066625631
H -3.8841391797816547 -2.8061463785067042 -9.006533705149106
H -4.320157767826349 -1.5470713636598599 -8.260776941540534
O 11.648850228627847 -5.89064489752027 0.9516327580026314
H 12.510166539460862 -5.79121603203219 0.5189487274436599
H 11.606103514087597 -6.83276422596192 1.1742216923023125
O 7.421986497566994 -8.314363005797995 5.9075671714824205
H 7.336822213282963 -8.596830899729781 6.830565703702341
H 7.9232569945557305 -9.030253244215764 5.4890089321813464
O 1.6059942886308236 6.911185404983315 6.511957824893513
H 1.8470281800655677 6.561831540888259 5.64085398623725
H 1.2701626253656906 7.800238246208388 6.32284388104431
O 10.736543313507058 -3.2709801121330284 9.24314549426904
H 11.412206910960991 -2.8944888675676226 9.826840965162212
H 9.899353627133888 -3.0137419110268655 9.65775842366471
C 2.104002322599306 -6.697052379582253 11.929655702586551
O 1.8841629378566118 -5.5239572695883545 11.838349814910254
O 2.323841707342 -7.870147489576152 12.020961590262846