146

C -5.3564454929577465 1.0091607042253532 -0.0734429577464788
C -4.079135492957747 0.16955070422535368 -0.19788295774647868
C -4.333545492957747 -1.2789292957746463 0.3017270422535212
C -3.1403854929577464 -2.1745492957746464 0.7330270422535212
C -2.905235492957746 0.902300704225353 0.41966704225352136
C -2.7423854929577463 1.056130704225354 1.8024770422535212
C -1.8861754929577463 1.3499307042253532 -0.4326129577464788
C -1.5304554929577463 1.5279207042253526 2.3254170422535214
H -3.5237954929577464 0.7301007042253529 2.484817042253521
C -0.6776454929577462 1.8010507042253527 0.08546704225352131
H -1.9759254929577463 1.2426607042253535 -1.5115229577464788
C -0.4680254929577463 1.8513207042253539 1.4698070422535212
H -1.3950654929577464 1.5446707042253527 3.404047042253521
H 0.1461845070422536 1.9972507042253538 -0.6030529577464789
C -1.8679654929577463 -2.0866092957746467 -0.08765295774647863
C -0.6628654929577462 -1.814079295774647 0.5787970422535212
C -1.8438954929577462 -2.213429295774647 -1.4808029577464787
C 0.5129345070422537 -1.5763292957746469 -0.13022295774647863
H -0.6401854929577462 -1.7032692957746463 1.6609470422535213
C -0.6547954929577462 -1.9962392957746466 -2.1933129577464787
H -2.7578654929577464 -2.4351492957746466 -2.026182957746479
C 0.5308845070422537 -1.645769295774647 -1.5261029577464789
H 1.4044045070422537 -1.2610992957746463 0.41551704225352126
H -0.6795654929577464 -2.0467992957746466 -3.2793129577464786
C 1.7843245070422535 -1.2521692957746469 -2.2771629577464787
H 1.4981245070422535 -0.9384492957746469 -3.290282957746479
H 2.241984507042254 -0.38631929577464685 -1.8135029577464787
C 0.9385645070422537 2.0647807042253534 1.9815670422535212
H 1.0508945070422537 1.5807407042253532 2.9609770422535213
H 1.6053245070422537 1.5496207042253536 1.3096170422535214
C 3.9676945070422533 -1.6881692957746468 -3.314052957746479
H 4.795084507042254 -2.398849295774647 -3.4044129577464783
H 3.548404507042253 -1.4816192957746468 -4.303802957746479
H 4.307714507042253 -0.7637192957746466 -2.851282957746479
C 2.344694507042253 -3.565079295774647 -3.101282957746479
H 1.6334345070422536 -4.047909295774646 -2.4251929577464786
H 1.8561845070422536 -3.293109295774647 -4.041792957746479
H 3.1808045070422537 -4.243519295774647 -3.298122957746479
C 3.5156645070422536 -2.648489295774647 -1.1110629577464786
H 3.9311845070422535 -1.748249295774647 -0.6771029577464787
H 2.767184507042254 -3.1044092957746465 -0.45972295774647876
H 4.319224507042254 -3.371819295774647 -1.2863129577464787
C 2.963994507042253 3.381090704225353 2.401027042253521
H 3.3337945070422537 4.369820704225353 2.6912870422535216
H 3.120994507042253 2.671350704225353 3.2183370422535216
H 3.4665445070422534 3.0664207042253535 1.4881370422535212
C 1.2973745070422538 4.282440704225354 0.8488370422535213
H 1.7592145070422538 3.7367207042253527 0.02653704225352116
H 0.23311450704225378 4.4484607042253534 0.6605570422535213
H 1.7921845070422535 5.251370704225354 0.9736770422535213
C 0.7724845070422537 4.194670704225353 3.2772470422535216
H -0.2956954929577462 4.278220704225354 3.057857042253521
H 0.9298945070422537 3.612620704225354 4.190337042253521
H 1.2046345070422537 5.193640704225353 3.3918370422535213
N 2.876084507042253 -2.324759295774647 -2.4576629577464786
N 1.4527845070422536 3.504690704225353 2.1388470422535213
C -3.593905492957746 -3.637819295774647 0.8297870422535213
H -2.8952554929577463 -1.8680692957746468 1.7595270422535212
H -5.022615492957747 -1.2402792957746467 1.1579970422535213
H -4.898275492957747 -1.7933092957746464 -0.48931295774647876
H -3.883675492957746 0.07871070422535364 -1.2758929577464788
H -3.8751654929577466 -4.038529295774646 -0.1505529577464788
H -4.4603554929577465 -3.7321892957746465 1.4932570422535212
H -2.7953554929577464 -4.271929295774647 1.2313670422535212
H -5.648775492957746 1.147700704225353 0.9733970422535213
H -6.189795492957747 0.5254307042253537 -0.5943629577464788
H -5.2178854929577465 2.002970704225354 -0.5139729577464787
C 3.6710445070422537 1.0263707042253536 -0.27764295774647874
O 2.7356545070422538 1.6631507042253526 -0.7327029577464788
O 3.650814507042253 0.3883007042253537 0.7790570422535212
O 4.756604507042254 0.8696707042253538 -0.8334829577464786
O -9.915665537661543 -2.2497886932368463 -0.8301993095814217
H -9.732607095239322 -3.1830421018376276 -1.015927710460164
H -9.05333530657209 -1.888200852358733 -0.5760285988803018
O -1.150197916841074 11.044474834818168 0.3393372641739969
H -0.424536898675965 10.895051100300432 -0.2852073628770653
H -0.7657888933609263 11.62981620783312 1.009088803182314
O 3.62825029214459 -4.839696046805438 -4.871149143471442
H 4.562034990268989 -5.075142009385008 -4.978753479600179
H 3.1939363919446677 -5.250333575331385 -5.63384842927105
O -10.152792134510431 7.118982803709409 -4.683550797776595
H -10.112915054569719 6.909219477258762 -3.7383648254559287
H -10.878310937257817 7.757744383810628 -4.751138185258235
O 2.8421733394010538 4.442114662812825 -5.8903621343185035
H 3.107961306271224 5.306465008802496 -6.238532484800218
H 1.89291407046954 4.5394838168779685 -5.721874649666835
O 3.7571578549847042 3.2615148321646603 12.680311293687446
H 3.9929435638286175 3.051837413645352 13.596503324087216
H 3.339079059508048 4.1336474396992715 12.739950039043702
O -3.777200199177769 -11.827157965730885 4.327450878314348
H -4.061808988579535 -10.953238675322652 4.634420368243933
H -4.261389420936453 -11.952862829091432 3.4975586990764516
O -7.328366398404242 4.755928869445695 -0.049135801234025445
H -7.168189199084359 4.23648456876317 -0.8513129887720909
H -8.285840404872298 4.904863489522805 -0.05402969339650682
O 5.527067145340569 2.1080656081900933 4.060364759390828
H 5.893730494757311 1.7840090776181228 3.223995994976378
H 5.2424130416548165 3.011634242254618 3.8566548944121593
O -15.336293069645492 0.3157172072372383 -4.167653462249061
H -15.787837595202756 -0.3954724069810309 -4.646489792290272
H -15.034285808273511 0.9140549831758094 -4.867471627391605
O 4.547133765486486 0.47423417409823665 7.767330113445789
H 4.186225357315809 1.3649027339940634 7.643144791346903
H 5.152831891789069 0.3607597743286667 7.019523129866151
O -3.424664605012044 6.103303536158259 -8.42406038796552
H -3.728984338108231 6.650928739596477 -9.163292079323185
H -3.8508115416901196 5.246501154448165 -8.576541243668139
O 4.4081778063756705 12.935835121219121 2.183973010612908
H 4.938479591807712 13.486336683114184 1.5884099126806346
H 4.246523282161897 12.127881420361266 1.6740312724002835
O -6.264213260209858 5.284934818381856 8.32180887329817
H -6.376899064128413 5.468609337473232 9.266548486912303
H -5.473801272389007 5.789629986635334 8.077895731071917
O -1.500119444092147 -0.16266426377205967 13.095515577819098
H -1.71542511082972 0.17745533183144246 13.97695161489564
H -1.3068065971776268 -1.1000058318937382 13.247116607462688
O -0.18915654574468216 -7.217694208911656 -2.7292249892700218
H 0.15259755170097145 -6.4358906495793775 -2.2699269505255817
H -0.6713505410747226 -6.852322685406391 -3.4861625989705134
O -12.294851723002711 1.2478435768647111 3.6715559149006722
H -12.669270034039235 0.7019544237652555 4.379216368641671
H -12.1016307354698 0.6141181368011677 2.964435231499972
O -0.2030619545331298 0.932267924435962 -12.524812593239783
H -0.09911395667850087 0.2789566376220649 -13.232870876973251
H -0.08364245760425959 0.41787670858132353 -11.712345606153635
O 5.655635895672153 2.507915673930126 -11.57031927104815
H 6.3165036030237385 1.8771757416227137 -11.247227383077094
H 5.255878516721705 2.8626764522772583 -10.762049036274405
O 0.20408596704884013 6.851219791801489 7.993267745687671
H -0.3505640220004512 6.160321977861397 7.60085092999239
H 0.31804814166284057 7.494489328398259 7.277601014349806
O -7.5449466728179235 -8.01624878759311 -2.5200737422819093
H -7.149634226600784 -8.874131022093511 -2.3038944220534825
H -7.031889382708414 -7.383287978399603 -1.995578961191969
O 0.8306917110363219 9.14323310811141 5.274451367830383
H 0.14330979694424117 9.35247894403115 4.624305506327476
H 1.6574529231331947 9.226319800112766 4.775929107460415
O 3.0936741674398305 2.890877141845994 -14.108367867215826
H 3.559895405399435 2.598389903675135 -14.905899264517899
H 2.2184853564012537 3.152646738470476 -14.431606428677693
O -8.306134393548312 4.380002039330057 4.314851535521802
H -8.532408249246494 4.566701784494019 5.23838318321082
H -7.7424593817657446 5.124750939156708 4.0568176199236445
C 4.286053220465524 8.370595115643304 -10.218338746192213
O 4.275366552238837 8.412156327593548 -9.02210435524559
O 4.296739888692212 8.329033903693059 -11.414573137138836