146

C -5.3564454929577465 1.0091607042253532 -0.0734429577464788
C -4.079135492957747 0.16955070422535368 -0.19788295774647868
C -4.333545492957747 -1.2789292957746463 0.3017270422535212
C -3.1403854929577464 -2.1745492957746464 0.7330270422535212
C -2.905235492957746 0.902300704225353 0.41966704225352136
C -2.7423854929577463 1.056130704225354 1.8024770422535212
C -1.8861754929577463 1.3499307042253532 -0.4326129577464788
C -1.5304554929577463 1.5279207042253526 2.3254170422535214
H -3.5237954929577464 0.7301007042253529 2.484817042253521
C -0.6776454929577462 1.8010507042253527 0.08546704225352131
H -1.9759254929577463 1.2426607042253535 -1.5115229577464788
C -0.4680254929577463 1.8513207042253539 1.4698070422535212
H -1.3950654929577464 1.5446707042253527 3.404047042253521
H 0.1461845070422536 1.9972507042253538 -0.6030529577464789
C -1.8679654929577463 -2.0866092957746467 -0.08765295774647863
C -0.6628654929577462 -1.814079295774647 0.5787970422535212
C -1.8438954929577462 -2.213429295774647 -1.4808029577464787
C 0.5129345070422537 -1.5763292957746469 -0.13022295774647863
H -0.6401854929577462 -1.7032692957746463 1.6609470422535213
C -0.6547954929577462 -1.9962392957746466 -2.1933129577464787
H -2.7578654929577464 -2.4351492957746466 -2.026182957746479
C 0.5308845070422537 -1.645769295774647 -1.5261029577464789
H 1.4044045070422537 -1.2610992957746463 0.41551704225352126
H -0.6795654929577464 -2.0467992957746466 -3.2793129577464786
C 1.7843245070422535 -1.2521692957746469 -2.2771629577464787
H 1.4981245070422535 -0.9384492957746469 -3.290282957746479
H 2.241984507042254 -0.38631929577464685 -1.8135029577464787
C 0.9385645070422537 2.0647807042253534 1.9815670422535212
H 1.0508945070422537 1.5807407042253532 2.9609770422535213
H 1.6053245070422537 1.5496207042253536 1.3096170422535214
C 3.9676945070422533 -1.6881692957746468 -3.314052957746479
H 4.795084507042254 -2.398849295774647 -3.4044129577464783
H 3.548404507042253 -1.4816192957746468 -4.303802957746479
H 4.307714507042253 -0.7637192957746466 -2.851282957746479
C 2.344694507042253 -3.565079295774647 -3.101282957746479
H 1.6334345070422536 -4.047909295774646 -2.4251929577464786
H 1.8561845070422536 -3.293109295774647 -4.041792957746479
H 3.1808045070422537 -4.243519295774647 -3.298122957746479
C 3.5156645070422536 -2.648489295774647 -1.1110629577464786
H 3.9311845070422535 -1.748249295774647 -0.6771029577464787
H 2.767184507042254 -3.1044092957746465 -0.45972295774647876
H 4.319224507042254 -3.371819295774647 -1.2863129577464787
C 2.963994507042253 3.381090704225353 2.401027042253521
H 3.3337945070422537 4.369820704225353 2.6912870422535216
H 3.120994507042253 2.671350704225353 3.2183370422535216
H 3.4665445070422534 3.0664207042253535 1.4881370422535212
C 1.2973745070422538 4.282440704225354 0.8488370422535213
H 1.7592145070422538 3.7367207042253527 0.02653704225352116
H 0.23311450704225378 4.4484607042253534 0.6605570422535213
H 1.7921845070422535 5.251370704225354 0.9736770422535213
C 0.7724845070422537 4.194670704225353 3.2772470422535216
H -0.2956954929577462 4.278220704225354 3.057857042253521
H 0.9298945070422537 3.612620704225354 4.190337042253521
H 1.2046345070422537 5.193640704225353 3.3918370422535213
N 2.876084507042253 -2.324759295774647 -2.4576629577464786
N 1.4527845070422536 3.504690704225353 2.1388470422535213
C -3.593905492957746 -3.637819295774647 0.8297870422535213
H -2.8952554929577463 -1.8680692957746468 1.7595270422535212
H -5.022615492957747 -1.2402792957746467 1.1579970422535213
H -4.898275492957747 -1.7933092957746464 -0.48931295774647876
H -3.883675492957746 0.07871070422535364 -1.2758929577464788
H -3.8751654929577466 -4.038529295774646 -0.1505529577464788
H -4.4603554929577465 -3.7321892957746465 1.4932570422535212
H -2.7953554929577464 -4.271929295774647 1.2313670422535212
H -5.648775492957746 1.147700704225353 0.9733970422535213
H -6.189795492957747 0.5254307042253537 -0.5943629577464788
H -5.2178854929577465 2.002970704225354 -0.5139729577464787
C 3.6710445070422537 1.0263707042253536 -0.27764295774647874
O 2.7356545070422538 1.6631507042253526 -0.7327029577464788
O 3.650814507042253 0.3883007042253537 0.7790570422535212
O 4.756604507042254 0.8696707042253538 -0.8334829577464786
O 6.63369558029817 5.961717422063565 -4.985861473456634
H 7.289079273275824 6.673574930437588 -5.03780817354914
H 6.908154598658107 5.340018938226031 -5.676603962909113
O 3.122712105218593 -0.5603923114243514 -11.329314972594542
H 4.037355421287156 -0.8089893277508298 -11.530795703049531
H 3.04392949091158 -0.7110799687533058 -10.37535036428265
O -3.225792389276222 -5.572816702479219 11.594979655160195
H -3.4114839166921995 -6.520648066102462 11.516866150066482
H -4.093544595134265 -5.177781599414505 11.767940115598847
O 4.19705516237382 1.4000190369989318 -4.903559919621919
H 3.50509277261625 1.2712349797320597 -5.569570486095811
H 4.994653748603598 1.0435645985528619 -5.322771886121392
O -2.0691667123325934 8.57196890486955 1.6956173856280434
H -1.6144619393280673 8.65214689862672 0.8436887409494067
H -1.7324752538131138 9.319658889231295 2.21191235301118
O -1.8266860809197585 0.8035062556235019 6.390395690520398
H -1.966491157088344 1.691855802520224 6.029484371626289
H -1.4398711988367254 0.3091588196418533 5.652183794221336
O 4.5657204469313655 1.7987321036571395 -12.226623185344275
H 4.949349802356415 1.4842670609743558 -13.059033908176866
H 3.9304263998489675 1.1077739338362131 -11.985915425603581
O 9.393877567695066 -0.9777627155043138 12.218408460812876
H 9.360795815311972 -0.7028310033716885 13.147001756192013
H 10.040093230501327 -0.37618168169904864 11.819074614000899
O 4.792787087406015 -7.027925519288844 0.46004200565032516
H 4.855735513878615 -7.456851378693839 1.3266604105081437
H 3.8955122965596547 -7.237194088587321 0.1599310929607184
O 8.157126379296475 3.878119687432491 9.87631968656243
H 8.854440319634703 3.275109195150381 10.174814195234976
H 8.335821059224479 4.6994957047370605 10.358369055260606
O -1.233766492462789 -2.6668193977751335 -7.475883200409965
H -0.4333316467315358 -2.5141156961803333 -8.000242804268263
H -0.9115397620474845 -2.7059475211154354 -6.562865747964652
O -8.890030317918129 3.929009904022034 -4.389294105541913
H -8.386200285210924 4.649202498850659 -3.981317045652182
H -8.384835343083783 3.1332860310815334 -4.164430814329913
O 2.9280914034383656 -6.196593888303582 -10.06519325260386
H 2.8699622860123988 -5.8995028789258015 -10.985695992824752
H 2.710337200052462 -5.405494527160771 -9.549725647407174
O 6.02682443969415 -14.752724885059031 -2.404775729702318
H 6.786926010247015 -15.280235619322523 -2.1167733259278654
H 6.278604556345298 -14.441826491468953 -3.2873350229071656
O -3.3873620438415983 -4.587251635842457 3.5581807784088455
H -3.870124666009244 -5.160904297280082 2.944315783834835
H -2.9756719201598094 -5.204896864392632 4.181067251220765
O -0.48325568244406636 3.730574206735904 -2.6792107310441393
H -0.46102273981125985 4.469496201824729 -2.052738594125156
H 0.0250620017907921 4.052364425174345 -3.438833092162775
O -0.296944754019119 -2.7788176031221736 7.795522109481684
H 0.2839195306736224 -3.407583158031992 7.341409880371591
H 0.31475662720339437 -2.147838044131318 8.203747734162661
O 2.311430433810891 -12.610314876418851 -4.36032786234714
H 1.941659826792087 -13.502343343490779 -4.27956729636192
H 3.0326588249113766 -12.712877763647915 -4.999289838002845
O -3.1632512787315976 -0.7713437232830833 -7.997300606000824
H -3.2022310437828523 -0.9897084790575478 -8.94057403839045
H -4.083505480648044 -0.5776743111286395 -7.763663479347382
O -10.966027966243939 -4.660670844350159 0.6391701663747993
H -11.52441428067507 -5.38746852198018 0.32462729720172945
H -10.128737662435071 -4.788132897222701 0.16836201380607552
O 11.52588110813672 3.1150313501306783 -3.0114430848425005
H 12.06553461342807 3.0091085213717106 -3.809266251637282
H 10.614687534780776 3.089818214362739 -3.3401565070807444
O -0.5999843099307485 6.474341706532148 -6.59612246666959
H -0.5265121862218176 5.801806088654925 -7.289855157714347
H -1.427952088558996 6.933663829623676 -6.80216733821969
O 5.841084436858807 -4.091181332940199 9.459594130246753
H 6.1986367692129285 -4.982944069442507 9.333566719283713
H 4.883671607459732 -4.207467536607223 9.365785083568047
O 7.547233511677742 -6.97105100886095 0.6999400288771016
H 7.582019917804009 -6.971808476526229 1.668318410033742
H 6.9580475605065395 -7.710095944248566 0.4863178326511512
C -6.660474700248317 -4.889735590086972 -2.0012737322471716
O -6.843092116187787 -4.235169776507933 -1.0158739492204039
O -6.477857284308847 -5.544301403666012 -2.9866735152739396