146

C -5.3564454929577465 1.0091607042253532 -0.0734429577464788
C -4.079135492957747 0.16955070422535368 -0.19788295774647868
C -4.333545492957747 -1.2789292957746463 0.3017270422535212
C -3.1403854929577464 -2.1745492957746464 0.7330270422535212
C -2.905235492957746 0.902300704225353 0.41966704225352136
C -2.7423854929577463 1.056130704225354 1.8024770422535212
C -1.8861754929577463 1.3499307042253532 -0.4326129577464788
C -1.5304554929577463 1.5279207042253526 2.3254170422535214
H -3.5237954929577464 0.7301007042253529 2.484817042253521
C -0.6776454929577462 1.8010507042253527 0.08546704225352131
H -1.9759254929577463 1.2426607042253535 -1.5115229577464788
C -0.4680254929577463 1.8513207042253539 1.4698070422535212
H -1.3950654929577464 1.5446707042253527 3.404047042253521
H 0.1461845070422536 1.9972507042253538 -0.6030529577464789
C -1.8679654929577463 -2.0866092957746467 -0.08765295774647863
C -0.6628654929577462 -1.814079295774647 0.5787970422535212
C -1.8438954929577462 -2.213429295774647 -1.4808029577464787
C 0.5129345070422537 -1.5763292957746469 -0.13022295774647863
H -0.6401854929577462 -1.7032692957746463 1.6609470422535213
C -0.6547954929577462 -1.9962392957746466 -2.1933129577464787
H -2.7578654929577464 -2.4351492957746466 -2.026182957746479
C 0.5308845070422537 -1.645769295774647 -1.5261029577464789
H 1.4044045070422537 -1.2610992957746463 0.41551704225352126
H -0.6795654929577464 -2.0467992957746466 -3.2793129577464786
C 1.7843245070422535 -1.2521692957746469 -2.2771629577464787
H 1.4981245070422535 -0.9384492957746469 -3.290282957746479
H 2.241984507042254 -0.38631929577464685 -1.8135029577464787
C 0.9385645070422537 2.0647807042253534 1.9815670422535212
H 1.0508945070422537 1.5807407042253532 2.9609770422535213
H 1.6053245070422537 1.5496207042253536 1.3096170422535214
C 3.9676945070422533 -1.6881692957746468 -3.314052957746479
H 4.795084507042254 -2.398849295774647 -3.4044129577464783
H 3.548404507042253 -1.4816192957746468 -4.303802957746479
H 4.307714507042253 -0.7637192957746466 -2.851282957746479
C 2.344694507042253 -3.565079295774647 -3.101282957746479
H 1.6334345070422536 -4.047909295774646 -2.4251929577464786
H 1.8561845070422536 -3.293109295774647 -4.041792957746479
H 3.1808045070422537 -4.243519295774647 -3.298122957746479
C 3.5156645070422536 -2.648489295774647 -1.1110629577464786
H 3.9311845070422535 -1.748249295774647 -0.6771029577464787
H 2.767184507042254 -3.1044092957746465 -0.45972295774647876
H 4.319224507042254 -3.371819295774647 -1.2863129577464787
C 2.963994507042253 3.381090704225353 2.401027042253521
H 3.3337945070422537 4.369820704225353 2.6912870422535216
H 3.120994507042253 2.671350704225353 3.2183370422535216
H 3.4665445070422534 3.0664207042253535 1.4881370422535212
C 1.2973745070422538 4.282440704225354 0.8488370422535213
H 1.7592145070422538 3.7367207042253527 0.02653704225352116
H 0.23311450704225378 4.4484607042253534 0.6605570422535213
H 1.7921845070422535 5.251370704225354 0.9736770422535213
C 0.7724845070422537 4.194670704225353 3.2772470422535216
H -0.2956954929577462 4.278220704225354 3.057857042253521
H 0.9298945070422537 3.612620704225354 4.190337042253521
H 1.2046345070422537 5.193640704225353 3.3918370422535213
N 2.876084507042253 -2.324759295774647 -2.4576629577464786
N 1.4527845070422536 3.504690704225353 2.1388470422535213
C -3.593905492957746 -3.637819295774647 0.8297870422535213
H -2.8952554929577463 -1.8680692957746468 1.7595270422535212
H -5.022615492957747 -1.2402792957746467 1.1579970422535213
H -4.898275492957747 -1.7933092957746464 -0.48931295774647876
H -3.883675492957746 0.07871070422535364 -1.2758929577464788
H -3.8751654929577466 -4.038529295774646 -0.1505529577464788
H -4.4603554929577465 -3.7321892957746465 1.4932570422535212
H -2.7953554929577464 -4.271929295774647 1.2313670422535212
H -5.648775492957746 1.147700704225353 0.9733970422535213
H -6.189795492957747 0.5254307042253537 -0.5943629577464788
H -5.2178854929577465 2.002970704225354 -0.5139729577464787
C 3.6710445070422537 1.0263707042253536 -0.27764295774647874
O 2.7356545070422538 1.6631507042253526 -0.7327029577464788
O 3.650814507042253 0.3883007042253537 0.7790570422535212
O 4.756604507042254 0.8696707042253538 -0.8334829577464786
O 6.17515725778139 -5.765716261123005 -1.7837868741747183
H 6.587429923860251 -6.59423545177138 -2.0711099613633266
H 6.9179294870423735 -5.147735896965214 -1.7106320434793179
O 4.17049842451164 8.87876949758723 2.9407399497255375
H 4.190276489859484 8.8324155437495 1.973048110349641
H 4.739562319598884 8.146565668216656 3.221819617903798
O 8.874745335665436 -4.789623515764974 6.963838796631851
H 8.617394591744787 -4.517214594155731 7.857444599506463
H 8.184292441176028 -5.417278831965362 6.702523759107052
O -0.8699204118216124 -4.275388041192605 -9.936315718033537
H -1.1564714231433597 -5.179522039331787 -9.737827460901428
H -0.053896722135418074 -4.394844511651945 -10.445037089548757
O -11.886001091925072 -0.10246062991047888 3.4704158493150707
H -12.102486546068638 -0.5221910940627823 4.316540983386118
H -11.58001061405133 -0.8363638135622238 2.9165946789212036
O -2.27758942979536 -5.120888823433502 -2.8015599654023307
H -2.3227713938697585 -5.514853294614975 -3.6857081104940246
H -1.7478454806527495 -4.319606112775161 -2.9291503656948774
O -4.251717832034434 -3.1229717694268917 -8.190298844704262
H -4.719485114253648 -3.5910573451349457 -7.482445031830933
H -4.102711641466282 -2.2372798651021606 -7.826555872145345
O -5.8986349318208156 -1.080000424749258 6.8715727037297825
H -5.8598196737454025 -1.9007157968039103 7.385272042559156
H -6.693188008087477 -0.6344542924645018 7.201930081884532
O 0.5211430076381924 -3.079593432053083 5.924925482434266
H 0.563544242528691 -3.0951770650378565 6.892875193195501
H 1.4179742367479973 -3.319737011963705 5.647460616512276
O 3.9812976658569514 -5.653371269433389 8.244713593979995
H 4.489760839982779 -5.865208853553024 9.041932130776681
H 3.2566882354161604 -6.296689225689781 8.251431091607204
O 7.525463567107186 2.0370645331715216 -12.753974879069844
H 7.213833915714323 1.9629974113059867 -13.668506660218712
H 6.965243828264409 1.4159373932037296 -12.264774649607142
O 7.789171816664997 -10.434452462347007 -1.8196623947371173
H 7.770488043225525 -10.401458014291068 -2.787923537150437
H 7.156227479397158 -9.752100721785574 -1.5499597577953281
O -0.20760437186630387 -10.30385106114777 -0.002873244041492806
H 0.25512514872564473 -10.57231879249126 -0.8108174406912523
H -1.0178912145117196 -9.882219850197053 -0.3263300400559752
O 4.545168127418733 6.775257834494429 -10.503071907113139
H 5.184600081117528 6.903305275527401 -11.21979918183753
H 5.01763584299364 6.220664255221681 -9.86419620412478
O -8.02546579996091 -6.093967070772829 8.243045545768478
H -7.449558155975951 -6.858302167763453 8.394998176571724
H -7.624093688393876 -5.645827340479477 7.483418561987079
O 7.468488362161462 -0.6703383944307811 -0.7809459819879483
H 6.746469117508511 -0.22562625948644366 -0.31202521652321513
H 7.086715541212413 -0.8901031081440456 -1.6440305248289917
O 3.2539452657275576 -6.635275083523084 0.7399144721842451
H 3.932616945972386 -6.9405680718549245 0.11929518581854004
H 2.4191096825964826 -6.828778707841385 0.28762270704377757
O 0.9114181892647828 7.477505503154315 3.0581252413512767
H 1.0210252465494118 7.062804819948402 3.9270193621979748
H 0.1820820304624604 6.984135193675308 2.6536299391683453
O -1.3051053965801112 5.214076904590496 -10.155544212002445
H -1.2965150351155406 4.9801128966919626 -11.095839062354164
H -0.978930588093526 4.41621605375919 -9.712836632081473
O 12.950959444019599 0.38419395203470863 -8.646935506613437
H 13.090867603650544 0.3404105114407967 -9.604785220346464
H 11.99262131662023 0.49432227485052316 -8.555165520308284
O 8.673944294995747 -4.260055230312764 1.7030194957407612
H 8.87805090932454 -5.161004773598822 1.9955904569448473
H 9.543853408362136 -3.854600410662541 1.569503698905665
O 9.85640022562784 -7.270707728970021 0.44596871230985613
H 9.5970504763118 -8.03977258665926 0.9753497745864932
H 9.088383907796171 -6.6820154309183 0.49650838048114654
O -6.350667039500577 -10.568761852737667 -7.3033873475458115
H -6.235881003730574 -11.18686413654453 -8.040775365922126
H -5.472848557665115 -10.174470596721076 -7.189672517040102
O -7.307920410288068 1.285135591749217 -4.229432167444527
H -7.791696406988272 2.0829519091271944 -4.490999110390622
H -6.5339285398969995 1.2790544218590163 -4.8124086234367915
C -2.5297045611023563 -3.655699167736772 7.984361181728993
O -2.7441131716051075 -4.7963191394541145 7.6913880000863575
O -2.315295950599605 -2.5150791960194296 8.277334363371628