146

C -5.3564454929577465 1.0091607042253532 -0.0734429577464788
C -4.079135492957747 0.16955070422535368 -0.19788295774647868
C -4.333545492957747 -1.2789292957746463 0.3017270422535212
C -3.1403854929577464 -2.1745492957746464 0.7330270422535212
C -2.905235492957746 0.902300704225353 0.41966704225352136
C -2.7423854929577463 1.056130704225354 1.8024770422535212
C -1.8861754929577463 1.3499307042253532 -0.4326129577464788
C -1.5304554929577463 1.5279207042253526 2.3254170422535214
H -3.5237954929577464 0.7301007042253529 2.484817042253521
C -0.6776454929577462 1.8010507042253527 0.08546704225352131
H -1.9759254929577463 1.2426607042253535 -1.5115229577464788
C -0.4680254929577463 1.8513207042253539 1.4698070422535212
H -1.3950654929577464 1.5446707042253527 3.404047042253521
H 0.1461845070422536 1.9972507042253538 -0.6030529577464789
C -1.8679654929577463 -2.0866092957746467 -0.08765295774647863
C -0.6628654929577462 -1.814079295774647 0.5787970422535212
C -1.8438954929577462 -2.213429295774647 -1.4808029577464787
C 0.5129345070422537 -1.5763292957746469 -0.13022295774647863
H -0.6401854929577462 -1.7032692957746463 1.6609470422535213
C -0.6547954929577462 -1.9962392957746466 -2.1933129577464787
H -2.7578654929577464 -2.4351492957746466 -2.026182957746479
C 0.5308845070422537 -1.645769295774647 -1.5261029577464789
H 1.4044045070422537 -1.2610992957746463 0.41551704225352126
H -0.6795654929577464 -2.0467992957746466 -3.2793129577464786
C 1.7843245070422535 -1.2521692957746469 -2.2771629577464787
H 1.4981245070422535 -0.9384492957746469 -3.290282957746479
H 2.241984507042254 -0.38631929577464685 -1.8135029577464787
C 0.9385645070422537 2.0647807042253534 1.9815670422535212
H 1.0508945070422537 1.5807407042253532 2.9609770422535213
H 1.6053245070422537 1.5496207042253536 1.3096170422535214
C 3.9676945070422533 -1.6881692957746468 -3.314052957746479
H 4.795084507042254 -2.398849295774647 -3.4044129577464783
H 3.548404507042253 -1.4816192957746468 -4.303802957746479
H 4.307714507042253 -0.7637192957746466 -2.851282957746479
C 2.344694507042253 -3.565079295774647 -3.101282957746479
H 1.6334345070422536 -4.047909295774646 -2.4251929577464786
H 1.8561845070422536 -3.293109295774647 -4.041792957746479
H 3.1808045070422537 -4.243519295774647 -3.298122957746479
C 3.5156645070422536 -2.648489295774647 -1.1110629577464786
H 3.9311845070422535 -1.748249295774647 -0.6771029577464787
H 2.767184507042254 -3.1044092957746465 -0.45972295774647876
H 4.319224507042254 -3.371819295774647 -1.2863129577464787
C 2.963994507042253 3.381090704225353 2.401027042253521
H 3.3337945070422537 4.369820704225353 2.6912870422535216
H 3.120994507042253 2.671350704225353 3.2183370422535216
H 3.4665445070422534 3.0664207042253535 1.4881370422535212
C 1.2973745070422538 4.282440704225354 0.8488370422535213
H 1.7592145070422538 3.7367207042253527 0.02653704225352116
H 0.23311450704225378 4.4484607042253534 0.6605570422535213
H 1.7921845070422535 5.251370704225354 0.9736770422535213
C 0.7724845070422537 4.194670704225353 3.2772470422535216
H -0.2956954929577462 4.278220704225354 3.057857042253521
H 0.9298945070422537 3.612620704225354 4.190337042253521
H 1.2046345070422537 5.193640704225353 3.3918370422535213
N 2.876084507042253 -2.324759295774647 -2.4576629577464786
N 1.4527845070422536 3.504690704225353 2.1388470422535213
C -3.593905492957746 -3.637819295774647 0.8297870422535213
H -2.8952554929577463 -1.8680692957746468 1.7595270422535212
H -5.022615492957747 -1.2402792957746467 1.1579970422535213
H -4.898275492957747 -1.7933092957746464 -0.48931295774647876
H -3.883675492957746 0.07871070422535364 -1.2758929577464788
H -3.8751654929577466 -4.038529295774646 -0.1505529577464788
H -4.4603554929577465 -3.7321892957746465 1.4932570422535212
H -2.7953554929577464 -4.271929295774647 1.2313670422535212
H -5.648775492957746 1.147700704225353 0.9733970422535213
H -6.189795492957747 0.5254307042253537 -0.5943629577464788
H -5.2178854929577465 2.002970704225354 -0.5139729577464787
C 3.6710445070422537 1.0263707042253536 -0.27764295774647874
O 2.7356545070422538 1.6631507042253526 -0.7327029577464788
O 3.650814507042253 0.3883007042253537 0.7790570422535212
O 4.756604507042254 0.8696707042253538 -0.8334829577464786
O -1.4511964645844786 -3.1790130022138934 -13.04337673389658
H -0.527317104996909 -3.2124056018938285 -12.753033454114389
H -1.827170795725502 -4.013079318500944 -12.724098443594198
O 8.48703607439295 -7.592306028710643 1.3846597394897535
H 8.642404414624153 -7.514403740436735 0.431371079515509
H 7.812808486560987 -6.920796694376998 1.5675649554052034
O -8.541219472015262 -7.19458275700221 2.792833858872493
H -7.714022184248051 -7.422773845192932 3.2429903108765776
H -8.337452350919229 -7.315532907258276 1.8532531194928112
O -8.547908125342897 -3.377754286104494 0.12003990516120755
H -7.730886284283024 -3.658685315980259 -0.3187315895647791
H -8.614072258842105 -2.4341948445331565 -0.09038783055793198
O 3.5995757625631373 -12.985143713429073 2.03800929191133
H 3.324038030045103 -13.327710828197642 2.9015450970392695
H 3.608443606011943 -12.023836408569906 2.159547645022482
O -3.3091767765293874 1.4724847860240668 7.402805566792719
H -3.2603266067076 0.7599044582585965 6.74796948479201
H -2.397383242781293 1.7941229602473183 7.467174666502871
O 10.888286281953459 4.524048434623447 1.8383931319413536
H 10.904092177095658 4.758788015110108 0.8983852277555952
H 11.63301017740989 5.016397694812362 2.215143008952124
O -10.394050677730178 4.388544307909353 0.9903477077240419
H -10.609544468741122 4.1544450273388485 1.9056221527797883
H -11.062514969390163 3.922547012076908 0.4659776519882466
O 12.606596529040027 -1.434100391349232 -6.113568008243595
H 12.790136623528582 -0.7870077106678321 -5.416035605251667
H 12.489907956820703 -0.8936750202996464 -6.90936078261349
O 6.689704011552001 6.880853376266151 9.232404082431197
H 6.994126735539884 6.741708662347715 8.323045566438545
H 7.348558213444356 7.4825709515347905 9.610304922019592
O 5.74031224245303 7.026521854883509 2.2242765106909137
H 6.471904187808515 6.7406616864441276 2.7917485773962163
H 5.481578461279466 6.2207713856670415 1.752275497834932
O -7.023171906280829 -7.943612973914746 4.897021022658425
H -7.01115020761482 -7.90101794590215 5.86501301603946
H -6.698699915521994 -7.073463429167541 4.620399184602877
O -3.8641643557483283 1.1750576021619676 -11.67359983474685
H -4.426172534274736 1.6172892081622714 -11.019730298200129
H -3.1872633506525263 1.8353449171587282 -11.885230728650978
O 5.315365919260237 -2.928751218627382 -11.047492577770784
H 5.424186636275993 -3.2856437405122394 -10.15320339843848
H 4.639712078138964 -2.24180418879342 -10.944742349156108
O 10.547152793231417 2.8340546441661485 -4.315692214047197
H 9.967699296693588 2.175779525195682 -4.7278510062553725
H 10.533530966612698 2.6016472555065424 -3.3750736963494044
O -8.955642566194456 -2.7323277932891368 3.6295663083956344
H -8.943839926943385 -2.1052385212900426 2.89092762842392
H -9.897495108860731 -2.8396468852230528 3.830460172611418
O 3.6881902032653713 -1.2712504321782583 4.23516342942756
H 3.258567672349601 -1.443624794387082 3.3838826783926086
H 4.14876091248438 -0.4296887963973073 4.09874283240794
O 3.1601477927593415 -10.6836397626398 8.883275587164364
H 3.349569858553785 -10.693223737093511 9.833535964810322
H 3.05558047356711 -9.743097255813723 8.674931129810036
O 12.130294906984352 4.400812286906708 4.069375185277712
H 12.500895239717199 3.8292462931289313 4.758530512497293
H 11.624496765215023 5.064157490274487 4.562430278803427
O -4.895343476964401 0.399488787453278 5.5554199291932385
H -5.752203006072015 0.039315424014376266 5.82934373711542
H -4.490121099000723 -0.3202218098585279 5.048691772471566
O -5.301641637565135 4.2234944680758035 -6.374104191320432
H -5.162941341125172 4.728707713706024 -5.558942145401191
H -4.821066915574125 4.728535991616552 -7.047114548137401
O 5.468998160548761 -1.9720236732333651 6.662502362370001
H 6.116582292389389 -2.6595747138079635 6.445994358607999
H 4.804847274218268 -2.046756635050907 5.960875304094453
O 1.8430150118790554 8.882969146773224 -8.706677936275756
H 1.6162501840740147 9.294493089441353 -7.859215185246882
H 2.724783380754939 8.509987633673315 -8.557241398455634
O 1.851269574922926 0.7871849393573749 7.01029379620765
H 1.8061098610894497 0.7419983005513924 6.043398701163779
H 1.5554431053449953 -0.08901980732163356 7.299627316723735
C -0.6240630587075581 10.171818311397887 10.131422869024115
O 0.06914724940808925 9.503524840567183 9.420324027183362
O -1.3172733668232044 10.840111782228592 10.842521710864867