146

C -5.3564454929577465 1.0091607042253532 -0.0734429577464788
C -4.079135492957747 0.16955070422535368 -0.19788295774647868
C -4.333545492957747 -1.2789292957746463 0.3017270422535212
C -3.1403854929577464 -2.1745492957746464 0.7330270422535212
C -2.905235492957746 0.902300704225353 0.41966704225352136
C -2.7423854929577463 1.056130704225354 1.8024770422535212
C -1.8861754929577463 1.3499307042253532 -0.4326129577464788
C -1.5304554929577463 1.5279207042253526 2.3254170422535214
H -3.5237954929577464 0.7301007042253529 2.484817042253521
C -0.6776454929577462 1.8010507042253527 0.08546704225352131
H -1.9759254929577463 1.2426607042253535 -1.5115229577464788
C -0.4680254929577463 1.8513207042253539 1.4698070422535212
H -1.3950654929577464 1.5446707042253527 3.404047042253521
H 0.1461845070422536 1.9972507042253538 -0.6030529577464789
C -1.8679654929577463 -2.0866092957746467 -0.08765295774647863
C -0.6628654929577462 -1.814079295774647 0.5787970422535212
C -1.8438954929577462 -2.213429295774647 -1.4808029577464787
C 0.5129345070422537 -1.5763292957746469 -0.13022295774647863
H -0.6401854929577462 -1.7032692957746463 1.6609470422535213
C -0.6547954929577462 -1.9962392957746466 -2.1933129577464787
H -2.7578654929577464 -2.4351492957746466 -2.026182957746479
C 0.5308845070422537 -1.645769295774647 -1.5261029577464789
H 1.4044045070422537 -1.2610992957746463 0.41551704225352126
H -0.6795654929577464 -2.0467992957746466 -3.2793129577464786
C 1.7843245070422535 -1.2521692957746469 -2.2771629577464787
H 1.4981245070422535 -0.9384492957746469 -3.290282957746479
H 2.241984507042254 -0.38631929577464685 -1.8135029577464787
C 0.9385645070422537 2.0647807042253534 1.9815670422535212
H 1.0508945070422537 1.5807407042253532 2.9609770422535213
H 1.6053245070422537 1.5496207042253536 1.3096170422535214
C 3.9676945070422533 -1.6881692957746468 -3.314052957746479
H 4.795084507042254 -2.398849295774647 -3.4044129577464783
H 3.548404507042253 -1.4816192957746468 -4.303802957746479
H 4.307714507042253 -0.7637192957746466 -2.851282957746479
C 2.344694507042253 -3.565079295774647 -3.101282957746479
H 1.6334345070422536 -4.047909295774646 -2.4251929577464786
H 1.8561845070422536 -3.293109295774647 -4.041792957746479
H 3.1808045070422537 -4.243519295774647 -3.298122957746479
C 3.5156645070422536 -2.648489295774647 -1.1110629577464786
H 3.9311845070422535 -1.748249295774647 -0.6771029577464787
H 2.767184507042254 -3.1044092957746465 -0.45972295774647876
H 4.319224507042254 -3.371819295774647 -1.2863129577464787
C 2.963994507042253 3.381090704225353 2.401027042253521
H 3.3337945070422537 4.369820704225353 2.6912870422535216
H 3.120994507042253 2.671350704225353 3.2183370422535216
H 3.4665445070422534 3.0664207042253535 1.4881370422535212
C 1.2973745070422538 4.282440704225354 0.8488370422535213
H 1.7592145070422538 3.7367207042253527 0.02653704225352116
H 0.23311450704225378 4.4484607042253534 0.6605570422535213
H 1.7921845070422535 5.251370704225354 0.9736770422535213
C 0.7724845070422537 4.194670704225353 3.2772470422535216
H -0.2956954929577462 4.278220704225354 3.057857042253521
H 0.9298945070422537 3.612620704225354 4.190337042253521
H 1.2046345070422537 5.193640704225353 3.3918370422535213
N 2.876084507042253 -2.324759295774647 -2.4576629577464786
N 1.4527845070422536 3.504690704225353 2.1388470422535213
C -3.593905492957746 -3.637819295774647 0.8297870422535213
H -2.8952554929577463 -1.8680692957746468 1.7595270422535212
H -5.022615492957747 -1.2402792957746467 1.1579970422535213
H -4.898275492957747 -1.7933092957746464 -0.48931295774647876
H -3.883675492957746 0.07871070422535364 -1.2758929577464788
H -3.8751654929577466 -4.038529295774646 -0.1505529577464788
H -4.4603554929577465 -3.7321892957746465 1.4932570422535212
H -2.7953554929577464 -4.271929295774647 1.2313670422535212
H -5.648775492957746 1.147700704225353 0.9733970422535213
H -6.189795492957747 0.5254307042253537 -0.5943629577464788
H -5.2178854929577465 2.002970704225354 -0.5139729577464787
C 3.6710445070422537 1.0263707042253536 -0.27764295774647874
O 2.7356545070422538 1.6631507042253526 -0.7327029577464788
O 3.650814507042253 0.3883007042253537 0.7790570422535212
O 4.756604507042254 0.8696707042253538 -0.8334829577464786
O -8.640809848541647 -10.293785919511489 6.6645999741784046
H -8.971324677429992 -10.074385423268279 7.54867617396728
H -9.096890661399206 -9.667862307216534 6.082215334945172
O 9.485103040920247 1.797947915464435 1.7267247063051445
H 8.798058215552617 1.6059170729871655 1.0709344041711208
H 9.093952982182214 2.491158662666461 2.279375080242266
O 4.70518499220654 -8.187905888331471 2.178107559482114
H 5.663059286768876 -8.316917685497927 2.247390666431738
H 4.454573176449316 -7.826847757269567 3.041700454367749
O -4.115517658137131 2.0435103448092087 -2.476804692842454
H -3.1881180393296464 2.248037863365137 -2.2842798942083906
H -4.140557030190206 1.9562595069205262 -3.44154417344585
O 8.577131617957082 6.422503772383055 3.5660334508144254
H 8.924614885814044 6.904524211326302 2.80060609835019
H 9.153970347479978 6.694580511450743 4.2955492302741325
O 9.749687208238974 2.4774782871667704 -2.7124280803742224
H 9.688686905793642 2.299521982507549 -1.761860947745699
H 10.562821734908853 2.0254685880479215 -2.9834657488630136
O -4.085127825069502 5.106346349540187 -11.405361648760579
H -4.014969573643258 4.2333657369643145 -11.820030223315568
H -3.2368394549401636 5.529595394601014 -11.605933409630367
O -1.1628529755614005 -4.177776679107826 11.563723317452077
H -1.1770494352234904 -5.146671697191267 11.560849058216458
H -2.0542335200780206 -3.9314902995740715 11.853111790638916
O -3.6499535389436137 4.093932987510946 -2.261185237625943
H -3.7565324679672387 4.975284837067179 -2.6495500224249544
H -4.083139098566063 3.5042698883899894 -2.896488035329255
O -4.81837747699758 2.017985236670854 8.2099131195456
H -4.462651539822501 2.331761079755475 7.36494499303582
H -5.109848326529136 1.1136286839084466 8.019792332546782
O 5.427021718145344 10.532482912277764 -0.08936406288582721
H 5.586862908248103 10.992274024793023 -0.9272246024140458
H 4.580713985745787 10.89153632113644 0.21691328849308888
O -10.331472818036499 -6.844244122592748 4.643466653883108
H -10.439444209422517 -6.8154640743601345 3.680927696559355
H -9.635916559611356 -6.193238046904277 4.820538743954673
O 4.121488457064039 -2.339858764560833 -8.405611954219813
H 3.953797621405442 -2.1805452079385614 -9.346604159932742
H 3.9756564181879854 -3.2919602655243603 -8.299792803777883
O 9.366369536106633 -8.632690409556982 -6.760642862670178
H 8.771584601824484 -8.816053605809854 -7.503324609524717
H 9.291001696662057 -9.419830255045367 -6.200560282400112
O 3.8285301325330985 -2.9794733028515332 7.603699165095568
H 3.2313542718109125 -3.0044937239557044 8.366406400408364
H 3.356886545764567 -3.4794318173903984 6.92065029780992
O -1.521183371944391 -6.007832589339275 -4.481694704780983
H -1.51662874918699 -5.887672276081029 -5.443208153168066
H -0.7639192515917044 -5.485667207608308 -4.176971370511642
O -7.925939091050456 4.67578316341569 -0.8902846436734442
H -7.159261592480436 4.6092647934158775 -0.3014312862583859
H -8.4684903558575 3.9079204285732048 -0.6557918083959178
O -8.605099728000033 -8.98072910023068 -2.10348086024786
H -8.997809367472346 -9.317810594466822 -2.9227015644595253
H -8.911546854542365 -9.600616654624858 -1.4246645943546845
O -1.3279640575282352 -12.356102462257498 -5.879900069438348
H -2.0166509302073674 -12.997376744987248 -6.111081908277136
H -1.8204271023430882 -11.60370568457749 -5.518872116603077
O -7.865390739996394 2.683429393698939 6.505669697650616
H -8.530163302503924 3.364478738184754 6.323415514124932
H -7.288460295199134 3.0910536255987724 7.168961256268774
O -6.050882353169618 5.748042574364328 -9.771781598894774
H -5.791024263653597 4.819377840565875 -9.86677076886763
H -5.231309676565544 6.238360300708089 -9.935644649327504
O 1.3258615637097346 8.921239210323353 12.751863229973806
H 1.3684933842053049 9.88863970266017 12.78772647310267
H 1.745716159256241 8.699606590349577 11.907136620553905
O -2.1776399769561543 -4.4413806142627426 -7.240978216344562
H -2.4978076537654434 -4.421660667754268 -6.326608958694106
H -2.367240592231132 -3.5515996672667764 -7.574599884331386
O -4.825885968384479 3.4229409546811893 -5.699150376964829
H -4.051568641725704 2.8406359802997563 -5.717065491997934
H -5.220459425778376 3.3147749861699367 -6.577543144624175
C -6.487922031250999 -9.689199932458168 -3.683617458132675
O -6.392536713713809 -9.545450534426353 -4.868124110314848
O -6.58330734878819 -9.832949330489983 -2.499110805950501