146

C -5.3564454929577465 1.0091607042253532 -0.0734429577464788
C -4.079135492957747 0.16955070422535368 -0.19788295774647868
C -4.333545492957747 -1.2789292957746463 0.3017270422535212
C -3.1403854929577464 -2.1745492957746464 0.7330270422535212
C -2.905235492957746 0.902300704225353 0.41966704225352136
C -2.7423854929577463 1.056130704225354 1.8024770422535212
C -1.8861754929577463 1.3499307042253532 -0.4326129577464788
C -1.5304554929577463 1.5279207042253526 2.3254170422535214
H -3.5237954929577464 0.7301007042253529 2.484817042253521
C -0.6776454929577462 1.8010507042253527 0.08546704225352131
H -1.9759254929577463 1.2426607042253535 -1.5115229577464788
C -0.4680254929577463 1.8513207042253539 1.4698070422535212
H -1.3950654929577464 1.5446707042253527 3.404047042253521
H 0.1461845070422536 1.9972507042253538 -0.6030529577464789
C -1.8679654929577463 -2.0866092957746467 -0.08765295774647863
C -0.6628654929577462 -1.814079295774647 0.5787970422535212
C -1.8438954929577462 -2.213429295774647 -1.4808029577464787
C 0.5129345070422537 -1.5763292957746469 -0.13022295774647863
H -0.6401854929577462 -1.7032692957746463 1.6609470422535213
C -0.6547954929577462 -1.9962392957746466 -2.1933129577464787
H -2.7578654929577464 -2.4351492957746466 -2.026182957746479
C 0.5308845070422537 -1.645769295774647 -1.5261029577464789
H 1.4044045070422537 -1.2610992957746463 0.41551704225352126
H -0.6795654929577464 -2.0467992957746466 -3.2793129577464786
C 1.7843245070422535 -1.2521692957746469 -2.2771629577464787
H 1.4981245070422535 -0.9384492957746469 -3.290282957746479
H 2.241984507042254 -0.38631929577464685 -1.8135029577464787
C 0.9385645070422537 2.0647807042253534 1.9815670422535212
H 1.0508945070422537 1.5807407042253532 2.9609770422535213
H 1.6053245070422537 1.5496207042253536 1.3096170422535214
C 3.9676945070422533 -1.6881692957746468 -3.314052957746479
H 4.795084507042254 -2.398849295774647 -3.4044129577464783
H 3.548404507042253 -1.4816192957746468 -4.303802957746479
H 4.307714507042253 -0.7637192957746466 -2.851282957746479
C 2.344694507042253 -3.565079295774647 -3.101282957746479
H 1.6334345070422536 -4.047909295774646 -2.4251929577464786
H 1.8561845070422536 -3.293109295774647 -4.041792957746479
H 3.1808045070422537 -4.243519295774647 -3.298122957746479
C 3.5156645070422536 -2.648489295774647 -1.1110629577464786
H 3.9311845070422535 -1.748249295774647 -0.6771029577464787
H 2.767184507042254 -3.1044092957746465 -0.45972295774647876
H 4.319224507042254 -3.371819295774647 -1.2863129577464787
C 2.963994507042253 3.381090704225353 2.401027042253521
H 3.3337945070422537 4.369820704225353 2.6912870422535216
H 3.120994507042253 2.671350704225353 3.2183370422535216
H 3.4665445070422534 3.0664207042253535 1.4881370422535212
C 1.2973745070422538 4.282440704225354 0.8488370422535213
H 1.7592145070422538 3.7367207042253527 0.02653704225352116
H 0.23311450704225378 4.4484607042253534 0.6605570422535213
H 1.7921845070422535 5.251370704225354 0.9736770422535213
C 0.7724845070422537 4.194670704225353 3.2772470422535216
H -0.2956954929577462 4.278220704225354 3.057857042253521
H 0.9298945070422537 3.612620704225354 4.190337042253521
H 1.2046345070422537 5.193640704225353 3.3918370422535213
N 2.876084507042253 -2.324759295774647 -2.4576629577464786
N 1.4527845070422536 3.504690704225353 2.1388470422535213
C -3.593905492957746 -3.637819295774647 0.8297870422535213
H -2.8952554929577463 -1.8680692957746468 1.7595270422535212
H -5.022615492957747 -1.2402792957746467 1.1579970422535213
H -4.898275492957747 -1.7933092957746464 -0.48931295774647876
H -3.883675492957746 0.07871070422535364 -1.2758929577464788
H -3.8751654929577466 -4.038529295774646 -0.1505529577464788
H -4.4603554929577465 -3.7321892957746465 1.4932570422535212
H -2.7953554929577464 -4.271929295774647 1.2313670422535212
H -5.648775492957746 1.147700704225353 0.9733970422535213
H -6.189795492957747 0.5254307042253537 -0.5943629577464788
H -5.2178854929577465 2.002970704225354 -0.5139729577464787
C 3.6710445070422537 1.0263707042253536 -0.27764295774647874
O 2.7356545070422538 1.6631507042253526 -0.7327029577464788
O 3.650814507042253 0.3883007042253537 0.7790570422535212
O 4.756604507042254 0.8696707042253538 -0.8334829577464786
O 2.4250741976177324 8.093187775544951 2.4595051070064606
H 3.0346266697345383 7.817098668500315 3.160353125914688
H 1.6096795190221553 8.31648601638313 2.933035843133049
O -9.39068021712185 -6.628708711852117 0.7610137295639914
H -10.33471658886844 -6.748223721383882 0.943985990347303
H -8.959397904702339 -7.30464838509331 1.3051305087875946
O 1.7645852894594811 -1.498920327862797 7.236657607941734
H 1.673248584702749 -1.9087204650070153 8.10997817386284
H 1.52824050803033 -0.5713676493267457 7.387485712523748
O 2.223212372462095 11.091637079347148 10.639437829273586
H 2.618821456263009 11.191470746064905 11.518354235255345
H 2.9587302955680332 10.791826825526892 10.084380047782183
O -0.9290012635887377 8.034590914144758 9.638392859655951
H -0.9445658332511679 7.823448084804904 10.583984635577032
H -1.6498721318633358 7.5034002533287465 9.268063793236806
O -2.4401783478211367 6.173423183395435 5.8156341879353946
H -2.0321476955413917 7.04844514506365 5.898186657907385
H -2.1266347353575257 5.694269352792527 6.597339985535634
O -4.115570521943263 -9.902413499311088 -2.307559760903464
H -3.7895465977612446 -10.066120334622122 -3.2052656313495715
H -3.710779308651868 -9.056926040699201 -2.062086798498048
O -6.637505084808091 -12.160176633813194 8.650842504492813
H -7.575600974015045 -12.380008845757564 8.753882584775505
H -6.399083942322552 -11.749886570224398 9.49569714692321
O -5.132484218891094 -4.084784993671482 -10.86142287376979
H -6.084858656542231 -4.251981110864959 -10.924634785654394
H -4.823329436312941 -4.14275652618095 -11.77795141458429
O 6.1164425282753525 -0.1139671334089396 0.7901879521138757
H 6.326722429509852 0.4508173846771564 0.031394061675196205
H 5.1477522568059335 -0.12687616296833593 0.8110316374007744
O -2.0253005692762835 11.26274890865356 -3.410467701635591
H -2.25210158518196 11.579513110965959 -4.297704477371102
H -1.3789733251747749 11.909298016615908 -3.089224353338324
O 3.4765598803047797 3.4029219405618485 -7.088591003261186
H 4.312646379453317 3.0538488848057255 -7.43221103263466
H 3.13976080885566 3.955748032596175 -7.809639990318975
O -8.273268267840086 -4.999148090010126 0.9750071590902902
H -8.907339170247958 -4.292804593384177 0.7800704709223187
H -7.540805950861779 -4.831589169718292 0.3631371510514887
O 0.21812970236080087 -14.170721167063064 -0.5337193181231275
H 0.2276227636332555 -15.002357052678864 -0.036467880273318265
H -0.7145636468006096 -13.907959427491894 -0.5325665182263641
O -1.4618668632155172 10.697746087041422 2.9877308663069018
H -1.9903196372075458 9.994096519288966 2.5820434147362183
H -0.7766655395590916 10.885401753344318 2.328757087417409
O -9.631350746336171 -1.4003062757385094 4.5916484181771215
H -9.141380295329643 -0.8213790234076934 5.1947566593321834
H -9.783852029572623 -2.204039131149662 5.110993005174878
O 6.630329878773661 7.885468593303539 1.569484119416627
H 5.763666276605397 8.255859443983812 1.7945889290255632
H 6.428346654257153 6.991183757725331 1.2557655286879763
O 3.3155703670128505 -1.132991399615607 12.276309634607031
H 2.379883425546069 -1.3754985448141017 12.344482862462378
H 3.3204987623624502 -0.17529698014246442 12.423819139823742
O -5.079436109657044 -12.761774705299189 -4.84865366635106
H -5.276180098743259 -12.75564911868873 -5.797453770085838
H -4.1144925582374565 -12.682473957235121 -4.809191301619176
O 1.3572942364614944 -1.621928919245979 11.288057760821298
H 0.9742353411711107 -2.337948942880552 10.759334236289565
H 1.1096643824318906 -0.8177907157872597 10.807429890810141
O 8.419236906124086 -8.12828372254778 8.04052202052649
H 8.197383959904881 -8.06400209381041 8.981594015307298
H 8.00614726685851 -7.344255998040964 7.6485788850640875
O -1.5663273743760975 -0.5426476077950542 -9.274097601516884
H -1.1657935740061736 -0.04417510782454703 -10.00215336753648
H -2.4603814511285123 -0.17575748180132078 -9.203239379759001
O 6.091483900393414 -6.471312877357107 1.2710029787916146
H 5.232757300445922 -6.526980793978019 1.7164881822515157
H 6.077362406335176 -5.601923196906449 0.84330669492716
O -6.75763306543652 -6.923326746051247 0.014662817031591113
H -6.868432488494603 -6.518998889386646 -0.8589559951943169
H -7.251310111861098 -6.337512234004764 0.6080145471287124
C -7.439653493458064 -2.179780051117989 -7.772725364766811
O -7.480656677066292 -2.006100540789034 -6.589098555368729
O -7.398650309849836 -2.353459561446944 -8.956352174164895