146

C -5.3564454929577465 1.0091607042253532 -0.0734429577464788
C -4.079135492957747 0.16955070422535368 -0.19788295774647868
C -4.333545492957747 -1.2789292957746463 0.3017270422535212
C -3.1403854929577464 -2.1745492957746464 0.7330270422535212
C -2.905235492957746 0.902300704225353 0.41966704225352136
C -2.7423854929577463 1.056130704225354 1.8024770422535212
C -1.8861754929577463 1.3499307042253532 -0.4326129577464788
C -1.5304554929577463 1.5279207042253526 2.3254170422535214
H -3.5237954929577464 0.7301007042253529 2.484817042253521
C -0.6776454929577462 1.8010507042253527 0.08546704225352131
H -1.9759254929577463 1.2426607042253535 -1.5115229577464788
C -0.4680254929577463 1.8513207042253539 1.4698070422535212
H -1.3950654929577464 1.5446707042253527 3.404047042253521
H 0.1461845070422536 1.9972507042253538 -0.6030529577464789
C -1.8679654929577463 -2.0866092957746467 -0.08765295774647863
C -0.6628654929577462 -1.814079295774647 0.5787970422535212
C -1.8438954929577462 -2.213429295774647 -1.4808029577464787
C 0.5129345070422537 -1.5763292957746469 -0.13022295774647863
H -0.6401854929577462 -1.7032692957746463 1.6609470422535213
C -0.6547954929577462 -1.9962392957746466 -2.1933129577464787
H -2.7578654929577464 -2.4351492957746466 -2.026182957746479
C 0.5308845070422537 -1.645769295774647 -1.5261029577464789
H 1.4044045070422537 -1.2610992957746463 0.41551704225352126
H -0.6795654929577464 -2.0467992957746466 -3.2793129577464786
C 1.7843245070422535 -1.2521692957746469 -2.2771629577464787
H 1.4981245070422535 -0.9384492957746469 -3.290282957746479
H 2.241984507042254 -0.38631929577464685 -1.8135029577464787
C 0.9385645070422537 2.0647807042253534 1.9815670422535212
H 1.0508945070422537 1.5807407042253532 2.9609770422535213
H 1.6053245070422537 1.5496207042253536 1.3096170422535214
C 3.9676945070422533 -1.6881692957746468 -3.314052957746479
H 4.795084507042254 -2.398849295774647 -3.4044129577464783
H 3.548404507042253 -1.4816192957746468 -4.303802957746479
H 4.307714507042253 -0.7637192957746466 -2.851282957746479
C 2.344694507042253 -3.565079295774647 -3.101282957746479
H 1.6334345070422536 -4.047909295774646 -2.4251929577464786
H 1.8561845070422536 -3.293109295774647 -4.041792957746479
H 3.1808045070422537 -4.243519295774647 -3.298122957746479
C 3.5156645070422536 -2.648489295774647 -1.1110629577464786
H 3.9311845070422535 -1.748249295774647 -0.6771029577464787
H 2.767184507042254 -3.1044092957746465 -0.45972295774647876
H 4.319224507042254 -3.371819295774647 -1.2863129577464787
C 2.963994507042253 3.381090704225353 2.401027042253521
H 3.3337945070422537 4.369820704225353 2.6912870422535216
H 3.120994507042253 2.671350704225353 3.2183370422535216
H 3.4665445070422534 3.0664207042253535 1.4881370422535212
C 1.2973745070422538 4.282440704225354 0.8488370422535213
H 1.7592145070422538 3.7367207042253527 0.02653704225352116
H 0.23311450704225378 4.4484607042253534 0.6605570422535213
H 1.7921845070422535 5.251370704225354 0.9736770422535213
C 0.7724845070422537 4.194670704225353 3.2772470422535216
H -0.2956954929577462 4.278220704225354 3.057857042253521
H 0.9298945070422537 3.612620704225354 4.190337042253521
H 1.2046345070422537 5.193640704225353 3.3918370422535213
N 2.876084507042253 -2.324759295774647 -2.4576629577464786
N 1.4527845070422536 3.504690704225353 2.1388470422535213
C -3.593905492957746 -3.637819295774647 0.8297870422535213
H -2.8952554929577463 -1.8680692957746468 1.7595270422535212
H -5.022615492957747 -1.2402792957746467 1.1579970422535213
H -4.898275492957747 -1.7933092957746464 -0.48931295774647876
H -3.883675492957746 0.07871070422535364 -1.2758929577464788
H -3.8751654929577466 -4.038529295774646 -0.1505529577464788
H -4.4603554929577465 -3.7321892957746465 1.4932570422535212
H -2.7953554929577464 -4.271929295774647 1.2313670422535212
H -5.648775492957746 1.147700704225353 0.9733970422535213
H -6.189795492957747 0.5254307042253537 -0.5943629577464788
H -5.2178854929577465 2.002970704225354 -0.5139729577464787
C 3.6710445070422537 1.0263707042253536 -0.27764295774647874
O 2.7356545070422538 1.6631507042253526 -0.7327029577464788
O 3.650814507042253 0.3883007042253537 0.7790570422535212
O 4.756604507042254 0.8696707042253538 -0.8334829577464786
O -10.54653774826594 -4.538130840814306 -0.4295988528778336
H -9.995373363660434 -4.774027944723269 -1.1908726107401406
H -10.08235523654912 -3.7883539936671373 -0.027938275277398783
O 8.30594311289846 -1.7709227130093088 0.16398164478952804
H 8.33587121153023 -1.864926858028979 1.1279499464112197
H 7.416684427020825 -2.074073964845259 -0.07325294881241262
O -0.48417117088408546 0.6714950990831832 5.412923120433367
H -1.282964593244345 0.9940320556362355 5.856619341908692
H 0.2387448642809038 1.1183786923829757 5.878379245584597
O 6.478895222556489 -8.997017284839364 -0.16908152883669958
H 6.9220439492102015 -8.140238860086004 -0.26137071478146856
H 6.631539801470808 -9.241018276729555 0.7561887520999968
O -12.914661648114595 2.3245674859046064 -0.9721511971172565
H -13.84174270351653 2.364384662752297 -0.6930407063744004
H -12.863509580976997 2.956470072121604 -1.704984419521794
O -0.1096342996330586 7.655916037810071 -9.776464236167612
H 0.37598344885562707 7.6654210987410725 -8.937982028205226
H -0.2004129691004808 6.71369814185059 -9.98369988465361
O -1.8907629178768068 -6.136277810192749 -1.7813640798612758
H -1.560111701578467 -7.032835037502835 -1.6206709928336145
H -1.1063130069862235 -5.576177878748025 -1.681923904884705
O -3.665856550981164 4.4661691336673375 9.353927106703026
H -3.659810330377306 4.010835086678442 10.209264295049895
H -3.0653949241171934 5.215586723198035 9.48346881993036
O -6.635420101755044 7.733406607281626 4.226615565817735
H -5.832414017027596 8.124348649205562 3.850699478576126
H -7.289288123807749 7.812942609107548 3.51591691065478
O 16.901995033738945 3.7016418488176788 1.5644022738142427
H 17.58015115391322 4.115969961234108 1.0099621518609228
H 17.32223791476849 3.630966222567154 2.434668222302453
O -9.275942858225232 -0.028903169914816562 0.7174181852847763
H -9.884791449873052 0.22726805871780797 0.00844212717750814
H -9.831695606692191 -0.03840964155411841 1.511150163894932
O -1.0216805498993713 -14.641447793009451 -0.5307610737814727
H -1.2883688038886607 -14.858441693263638 0.37519608819508654
H -0.07062019557637278 -14.826461836499247 -0.5454563262995559
O -1.8484167074377038 -9.431300604890987 6.605168056859315
H -2.0094242096745942 -9.472618806863197 7.5598076471284505
H -2.574519785325797 -9.946613751093807 6.222821844726924
O 7.1110649993652615 0.7756707488545296 -7.811523679872036
H 7.798148493835088 1.4587104919559077 -7.829971928329182
H 6.282072262593061 1.276943359054715 -7.832942291919372
O 2.3670063528800105 -6.940454086151166 -3.4180511137982315
H 3.208043241886187 -7.322754563261921 -3.7104047582627775
H 2.4727622622030836 -6.847706317367274 -2.4593147145054655
O -5.983912592457971 1.6499335200484815 -14.119481367253025
H -6.386310387352275 1.0550163633994085 -13.46900696476759
H -5.422359791064383 1.067843028339829 -14.653139549059873
O 4.0329497567236885 -2.3814293757793195 8.627762619577634
H 3.5640806471272644 -1.534606530747923 8.582816161439208
H 4.373627145698113 -2.5083057138428186 7.729540344313229
O -7.919183996245657 2.6768318511179277 -2.0129088064585035
H -8.095546682211836 2.8695022222472963 -1.0797733993563685
H -7.7714427387989495 3.5491380316954215 -2.4081510011624236
O -5.325687811747788 -6.515136970346052 0.12771990215793871
H -6.094141461288514 -6.275443933772994 0.6671581225557228
H -4.567296018221882 -6.26045311852614 0.6744739304327468
O -4.001261977980036 8.31135363264605 12.670355557894405
H -4.282959206341864 8.176685522569738 13.587676945719707
H -4.8313332027535845 8.438693904561077 12.186901153372583
O -5.190504774836933 5.1089233151313005 -9.27822632777352
H -4.9156734371757524 5.247458753778089 -10.19705331093102
H -5.108826254216902 5.98610967735743 -8.874698572230223
O -4.3048547039730485 15.95494622248167 3.3517877139203476
H -4.822967188196972 16.21564105503779 4.128038327362845
H -4.348629127606039 14.986942054942112 3.355485789318526
O 3.9862100721304126 -4.496958038447644 -5.760763664996917
H 4.896438266266368 -4.369927893711942 -6.067871681545528
H 4.059024163017799 -5.1989845059352415 -5.096821731229266
O 7.687573102675406 1.352781713027097 -4.920262000702726
H 7.093672518231058 0.7624840774859587 -4.43261647968238
H 7.5375694494600065 1.1206731388835687 -5.84901732807969
C 1.318691799660674 -0.3828917122810795 3.1049068520216796
O 1.2947136935367605 -0.4626155848150139 1.9108015753082306
O 1.3426699057845872 -0.30316783974714495 4.2990121287351295