146

C -5.3564454929577465 1.0091607042253532 -0.0734429577464788
C -4.079135492957747 0.16955070422535368 -0.19788295774647868
C -4.333545492957747 -1.2789292957746463 0.3017270422535212
C -3.1403854929577464 -2.1745492957746464 0.7330270422535212
C -2.905235492957746 0.902300704225353 0.41966704225352136
C -2.7423854929577463 1.056130704225354 1.8024770422535212
C -1.8861754929577463 1.3499307042253532 -0.4326129577464788
C -1.5304554929577463 1.5279207042253526 2.3254170422535214
H -3.5237954929577464 0.7301007042253529 2.484817042253521
C -0.6776454929577462 1.8010507042253527 0.08546704225352131
H -1.9759254929577463 1.2426607042253535 -1.5115229577464788
C -0.4680254929577463 1.8513207042253539 1.4698070422535212
H -1.3950654929577464 1.5446707042253527 3.404047042253521
H 0.1461845070422536 1.9972507042253538 -0.6030529577464789
C -1.8679654929577463 -2.0866092957746467 -0.08765295774647863
C -0.6628654929577462 -1.814079295774647 0.5787970422535212
C -1.8438954929577462 -2.213429295774647 -1.4808029577464787
C 0.5129345070422537 -1.5763292957746469 -0.13022295774647863
H -0.6401854929577462 -1.7032692957746463 1.6609470422535213
C -0.6547954929577462 -1.9962392957746466 -2.1933129577464787
H -2.7578654929577464 -2.4351492957746466 -2.026182957746479
C 0.5308845070422537 -1.645769295774647 -1.5261029577464789
H 1.4044045070422537 -1.2610992957746463 0.41551704225352126
H -0.6795654929577464 -2.0467992957746466 -3.2793129577464786
C 1.7843245070422535 -1.2521692957746469 -2.2771629577464787
H 1.4981245070422535 -0.9384492957746469 -3.290282957746479
H 2.241984507042254 -0.38631929577464685 -1.8135029577464787
C 0.9385645070422537 2.0647807042253534 1.9815670422535212
H 1.0508945070422537 1.5807407042253532 2.9609770422535213
H 1.6053245070422537 1.5496207042253536 1.3096170422535214
C 3.9676945070422533 -1.6881692957746468 -3.314052957746479
H 4.795084507042254 -2.398849295774647 -3.4044129577464783
H 3.548404507042253 -1.4816192957746468 -4.303802957746479
H 4.307714507042253 -0.7637192957746466 -2.851282957746479
C 2.344694507042253 -3.565079295774647 -3.101282957746479
H 1.6334345070422536 -4.047909295774646 -2.4251929577464786
H 1.8561845070422536 -3.293109295774647 -4.041792957746479
H 3.1808045070422537 -4.243519295774647 -3.298122957746479
C 3.5156645070422536 -2.648489295774647 -1.1110629577464786
H 3.9311845070422535 -1.748249295774647 -0.6771029577464787
H 2.767184507042254 -3.1044092957746465 -0.45972295774647876
H 4.319224507042254 -3.371819295774647 -1.2863129577464787
C 2.963994507042253 3.381090704225353 2.401027042253521
H 3.3337945070422537 4.369820704225353 2.6912870422535216
H 3.120994507042253 2.671350704225353 3.2183370422535216
H 3.4665445070422534 3.0664207042253535 1.4881370422535212
C 1.2973745070422538 4.282440704225354 0.8488370422535213
H 1.7592145070422538 3.7367207042253527 0.02653704225352116
H 0.23311450704225378 4.4484607042253534 0.6605570422535213
H 1.7921845070422535 5.251370704225354 0.9736770422535213
C 0.7724845070422537 4.194670704225353 3.2772470422535216
H -0.2956954929577462 4.278220704225354 3.057857042253521
H 0.9298945070422537 3.612620704225354 4.190337042253521
H 1.2046345070422537 5.193640704225353 3.3918370422535213
N 2.876084507042253 -2.324759295774647 -2.4576629577464786
N 1.4527845070422536 3.504690704225353 2.1388470422535213
C -3.593905492957746 -3.637819295774647 0.8297870422535213
H -2.8952554929577463 -1.8680692957746468 1.7595270422535212
H -5.022615492957747 -1.2402792957746467 1.1579970422535213
H -4.898275492957747 -1.7933092957746464 -0.48931295774647876
H -3.883675492957746 0.07871070422535364 -1.2758929577464788
H -3.8751654929577466 -4.038529295774646 -0.1505529577464788
H -4.4603554929577465 -3.7321892957746465 1.4932570422535212
H -2.7953554929577464 -4.271929295774647 1.2313670422535212
H -5.648775492957746 1.147700704225353 0.9733970422535213
H -6.189795492957747 0.5254307042253537 -0.5943629577464788
H -5.2178854929577465 2.002970704225354 -0.5139729577464787
C 3.6710445070422537 1.0263707042253536 -0.27764295774647874
O 2.7356545070422538 1.6631507042253526 -0.7327029577464788
O 3.650814507042253 0.3883007042253537 0.7790570422535212
O 4.756604507042254 0.8696707042253538 -0.8334829577464786
O 0.9645182911981361 3.496961517324409 -6.208087321743676
H 0.6488401592896528 4.218514303855922 -6.772601493561692
H 1.505577786691948 3.9427203368708517 -5.539121222877267
O -1.8089499087379264 7.149290319681382 8.46923122581274
H -1.9599068749159994 7.2020791633549175 7.513515426400631
H -2.150734921587625 7.990748949254704 8.80700677852181
O -4.043773370343915 3.989478785857138 -12.712176989048412
H -4.147661928749099 3.614419856441776 -13.599591956128805
H -4.002370234259244 3.213391792724437 -12.133439826156138
O -4.682695616714186 0.9876350787537804 7.886410418550642
H -4.616016576737229 0.8950228696548186 6.924150453024921
H -3.8533949187352907 1.4212290990549605 8.137843356310944
O -8.570082727935452 -0.4849616400555399 0.2687057046151242
H -8.13746083555391 -1.026920498435023 -0.40811498874185403
H -9.443266905450871 -0.29531533443657043 -0.1061884340451078
O 4.091346473135415 -5.259295745670583 -6.898293250880649
H 3.2612900151225355 -5.3098804387134635 -7.395701355198293
H 4.509559449286865 -6.119650351004165 -7.0527270682907
O 8.967083522728167 -3.7136638743544603 -8.677122193466618
H 9.733874035190862 -3.459146138244183 -8.142126502920892
H 8.2166770785301 -3.3054391299640873 -8.219733222378085
O -2.0902904057727483 10.061599316741741 8.330001133545625
H -3.0524880065445723 10.149002692292346 8.255813641936152
H -1.8395583509840905 9.557517293762627 7.541333462653291
O 0.5640815315556429 10.261132380603485 9.528023561733963
H -0.17850142018980364 10.828946003944239 9.7832207518158
H 1.1194296252754707 10.834762583553353 8.97893447117994
O -14.614883852088546 -3.037911471890072 1.2984106919107212
H -15.249205450612457 -3.549362578977338 1.8228353591464268
H -14.437973997452493 -2.2558986597450477 1.8425805268645545
O 8.4611556848374 1.7921478077287958 -2.4859113391900403
H 8.641240884483626 1.2043732256195212 -1.7368734774002323
H 7.622717867282315 2.2183002942654775 -2.252720368927317
O -6.857433759456633 4.448562382889584 6.675775093297631
H -6.9910547394409015 4.954670962397222 5.860320069181153
H -6.994237917650619 3.528238314955588 6.405127395021339
O -4.87815771162328 3.8651076301739966 7.217296792486238
H -5.1901157752972615 4.037813538342464 6.316285031912333
H -4.317706831507369 3.080094513414524 7.1245004466913855
O -8.970040912796849 -6.68662216325992 -1.719067518807266
H -8.849586134524255 -6.88828594283261 -0.7789666075749878
H -9.012533449552045 -5.7189656426593825 -1.7473020147186213
O -0.8444014480224544 -3.6499860430056827 9.692781621353754
H -0.5060438406512731 -3.4936921531282534 10.58723883465187
H -0.4716088022037406 -4.510413417069641 9.448543373970422
O 9.90542101011027 -1.3998485126924853 -7.180590536866908
H 10.366735737602184 -1.086171195677979 -6.388275814114868
H 8.998740858377115 -1.077533564925984 -7.066546154280922
O -0.7311213663868767 6.302849386489216 -0.3851972229491145
H -1.3747663818844136 5.612803244026551 -0.6054806136020934
H -0.7333959633027991 6.881718980611547 -1.1622858687994557
O -4.011430274895507 0.5048137722194381 -13.676286184016753
H -3.8931348937351506 0.06523674514015099 -14.531707481951438
H -4.487469015291068 1.3197833499209048 -13.89577114788376
O -4.846813901138868 -5.304724372004562 -9.490995054722344
H -5.374739335211005 -5.1611319857446265 -10.29077209838384
H -4.270833697710166 -4.526679788607609 -9.447920981257052
O -0.7663126494930457 2.984842798799132 -2.0924477545651903
H 0.1164893584609154 3.165509278795872 -1.736094566480612
H -1.1362832545496568 3.8648973912935936 -2.258542937889247
O 0.4219929768482831 -5.069017128836229 -6.270221904772435
H 1.384039645196106 -5.1846055613585715 -6.261684979805958
H 0.09161697668145839 -5.8183296464750445 -5.752202220085117
O -0.4007097943855149 1.5032845180870589 -7.788890939933001
H 0.559008800490666 1.5487896247893684 -7.914735529856055
H -0.5631058742867894 2.0703086310025904 -7.02007814548623
O 0.6959202756020642 0.929397408280866 -2.7723399203557424
H 0.31253713204862343 1.7799510207592948 -2.5105322152762755
H 0.5209303646495722 0.35076119033944186 -2.0150284899314532
O 0.7689490524403988 -11.051501821088415 -1.20996662493256
H 0.7940781527904486 -11.016343722414216 -2.1780057735795624
H 1.6684160838901736 -10.80876304875858 -0.9435104520959525
C 6.041682863812007 8.936430383800436 -0.3777037859757244
O 6.42702164878994 7.835240097254858 -0.6454951803658295
O 5.656344078834072 10.037620670346016 -0.10991239158561927