146

C -5.3564454929577465 1.0091607042253532 -0.0734429577464788
C -4.079135492957747 0.16955070422535368 -0.19788295774647868
C -4.333545492957747 -1.2789292957746463 0.3017270422535212
C -3.1403854929577464 -2.1745492957746464 0.7330270422535212
C -2.905235492957746 0.902300704225353 0.41966704225352136
C -2.7423854929577463 1.056130704225354 1.8024770422535212
C -1.8861754929577463 1.3499307042253532 -0.4326129577464788
C -1.5304554929577463 1.5279207042253526 2.3254170422535214
H -3.5237954929577464 0.7301007042253529 2.484817042253521
C -0.6776454929577462 1.8010507042253527 0.08546704225352131
H -1.9759254929577463 1.2426607042253535 -1.5115229577464788
C -0.4680254929577463 1.8513207042253539 1.4698070422535212
H -1.3950654929577464 1.5446707042253527 3.404047042253521
H 0.1461845070422536 1.9972507042253538 -0.6030529577464789
C -1.8679654929577463 -2.0866092957746467 -0.08765295774647863
C -0.6628654929577462 -1.814079295774647 0.5787970422535212
C -1.8438954929577462 -2.213429295774647 -1.4808029577464787
C 0.5129345070422537 -1.5763292957746469 -0.13022295774647863
H -0.6401854929577462 -1.7032692957746463 1.6609470422535213
C -0.6547954929577462 -1.9962392957746466 -2.1933129577464787
H -2.7578654929577464 -2.4351492957746466 -2.026182957746479
C 0.5308845070422537 -1.645769295774647 -1.5261029577464789
H 1.4044045070422537 -1.2610992957746463 0.41551704225352126
H -0.6795654929577464 -2.0467992957746466 -3.2793129577464786
C 1.7843245070422535 -1.2521692957746469 -2.2771629577464787
H 1.4981245070422535 -0.9384492957746469 -3.290282957746479
H 2.241984507042254 -0.38631929577464685 -1.8135029577464787
C 0.9385645070422537 2.0647807042253534 1.9815670422535212
H 1.0508945070422537 1.5807407042253532 2.9609770422535213
H 1.6053245070422537 1.5496207042253536 1.3096170422535214
C 3.9676945070422533 -1.6881692957746468 -3.314052957746479
H 4.795084507042254 -2.398849295774647 -3.4044129577464783
H 3.548404507042253 -1.4816192957746468 -4.303802957746479
H 4.307714507042253 -0.7637192957746466 -2.851282957746479
C 2.344694507042253 -3.565079295774647 -3.101282957746479
H 1.6334345070422536 -4.047909295774646 -2.4251929577464786
H 1.8561845070422536 -3.293109295774647 -4.041792957746479
H 3.1808045070422537 -4.243519295774647 -3.298122957746479
C 3.5156645070422536 -2.648489295774647 -1.1110629577464786
H 3.9311845070422535 -1.748249295774647 -0.6771029577464787
H 2.767184507042254 -3.1044092957746465 -0.45972295774647876
H 4.319224507042254 -3.371819295774647 -1.2863129577464787
C 2.963994507042253 3.381090704225353 2.401027042253521
H 3.3337945070422537 4.369820704225353 2.6912870422535216
H 3.120994507042253 2.671350704225353 3.2183370422535216
H 3.4665445070422534 3.0664207042253535 1.4881370422535212
C 1.2973745070422538 4.282440704225354 0.8488370422535213
H 1.7592145070422538 3.7367207042253527 0.02653704225352116
H 0.23311450704225378 4.4484607042253534 0.6605570422535213
H 1.7921845070422535 5.251370704225354 0.9736770422535213
C 0.7724845070422537 4.194670704225353 3.2772470422535216
H -0.2956954929577462 4.278220704225354 3.057857042253521
H 0.9298945070422537 3.612620704225354 4.190337042253521
H 1.2046345070422537 5.193640704225353 3.3918370422535213
N 2.876084507042253 -2.324759295774647 -2.4576629577464786
N 1.4527845070422536 3.504690704225353 2.1388470422535213
C -3.593905492957746 -3.637819295774647 0.8297870422535213
H -2.8952554929577463 -1.8680692957746468 1.7595270422535212
H -5.022615492957747 -1.2402792957746467 1.1579970422535213
H -4.898275492957747 -1.7933092957746464 -0.48931295774647876
H -3.883675492957746 0.07871070422535364 -1.2758929577464788
H -3.8751654929577466 -4.038529295774646 -0.1505529577464788
H -4.4603554929577465 -3.7321892957746465 1.4932570422535212
H -2.7953554929577464 -4.271929295774647 1.2313670422535212
H -5.648775492957746 1.147700704225353 0.9733970422535213
H -6.189795492957747 0.5254307042253537 -0.5943629577464788
H -5.2178854929577465 2.002970704225354 -0.5139729577464787
C 3.6710445070422537 1.0263707042253536 -0.27764295774647874
O 2.7356545070422538 1.6631507042253526 -0.7327029577464788
O 3.650814507042253 0.3883007042253537 0.7790570422535212
O 4.756604507042254 0.8696707042253538 -0.8334829577464786
O 5.265140006460095 -10.308255561122698 -5.111027223620027
H 5.1006727094072835 -10.286158619312708 -4.156339007361551
H 4.4012089205316975 -10.52536944869322 -5.492401820165986
O 1.5294205801648202 1.264999338285877 -12.146139746381564
H 1.5755463962891298 1.0902371915866624 -13.098136573092635
H 1.332486415082081 0.399035243337462 -11.758473568873987
O -4.653846438388065 1.082978706137916 -12.140346080414702
H -5.292948048985559 1.1697437218577038 -11.417166766358472
H -4.864736125600224 0.22456259412199842 -12.537346411345332
O -2.83869005300526 -5.28628795976068 9.496532087549973
H -3.2546659698336025 -5.70056228802977 10.267445944252534
H -1.9802386432365884 -4.983185399154117 9.828423574515101
O -2.811621763439677 0.05944832513393061 8.419078412595528
H -2.6506942421782718 -0.30721832626469814 9.30147586077451
H -3.3189572886608514 0.8670973791423262 8.590179595256249
O -3.727717688962485 11.78276242860142 3.24411774971607
H -4.199707389914385 12.32733089847458 3.8919126715202945
H -3.8555255237507775 10.876584260721717 3.5626585316026533
O -10.44281499457881 0.8259417660342532 -2.376606724174635
H -9.867898153399732 0.2290759613427893 -2.878791146293327
H -9.836960877795942 1.498386129381068 -2.030599048421122
O 1.5239918527137535 6.997877227041109 -12.845998272335585
H 1.029450257926971 7.782077779604538 -13.127823504145939
H 1.9229712879942389 7.262981585733529 -12.003681803586726
O 0.29645435395370634 6.865526705161663 -14.90448827550301
H 0.789547696818713 6.733139926752883 -15.728078011369576
H -0.41161708575392675 6.205378069807985 -14.946921279297648
O 2.3018297874693165 -1.5644232671400022 3.0787761655016896
H 2.607005749879114 -1.8170048865661088 3.9631050151924256
H 1.8146187403725293 -2.3423444620118223 2.7682508775523007
O 9.649376009014391 -2.31937685337092 1.2915845168382174
H 10.129511666718148 -1.785320746589524 1.9421390356226773
H 10.295212620095551 -2.9861895146132857 1.0137034435459253
O -3.2366680070566503 4.415683636404007 8.25837790206143
H -2.426834157080788 3.948035389220607 8.512231421319225
H -3.263976944046895 5.177856730356522 8.856130644518807
O -7.704587150292632 -3.7619609910402354 -4.418699437195043
H -8.06720614818046 -4.649149645284048 -4.561426838390053
H -8.187151055110506 -3.4335096092977517 -3.64525667144028
O 0.480934944978044 -7.971938979782214 9.505777527948144
H -0.06900086376497683 -8.769578015464567 9.488172644594751
H 0.07696122223957658 -7.424299907141635 10.19560259400054
O 6.37564938830532 6.731995459974468 1.6758873480293182
H 6.667260741374259 6.415765191200919 2.5441779634183788
H 7.201084620006018 6.866762512990157 1.1865444580342928
O 6.287745719973647 -3.3670472819061468 5.825480696347789
H 6.1293781342249885 -3.3797603176112965 6.78137056626341
H 6.2729231611434955 -2.425175064932483 5.598282626499384
O 5.299969744758389 10.18338197538068 -0.3734006384682633
H 5.758807085451913 10.710251520950283 0.2980486400603346
H 5.865996448717308 9.4051838970056 -0.4873456494109685
O 5.524863811110249 4.855004843426692 -8.430419623963529
H 5.608671110662913 4.7485903684018185 -9.389908890681438
H 6.269502180509667 5.42760638892523 -8.192505536085442
O -1.2814738705499065 3.044724908539772 -3.3665295217443747
H -0.9576823705337976 3.8965178691905424 -3.037022050504171
H -2.1479977118308002 3.254659292436026 -3.7460370068482973
O 2.4071743295633725 -3.95935781404164 -7.070202900748022
H 2.4298132290591523 -4.316797479425565 -6.169818692345937
H 3.2923664196810916 -3.5857817026886285 -7.1960512099118175
O -10.102078385349738 9.433310148626733 3.6197334709606412
H -9.581705770139264 9.608870947957294 4.418080578412923
H -9.704761116099798 8.628939636382865 3.2535518071811627
O -7.430923001618694 7.347380495102789 3.6819373188714515
H -7.623511356841494 7.485446866925584 4.621519544812464
H -6.9712709546729705 8.157805291462717 3.4156788176295625
O -5.006211188727469 5.217373853574262 -3.8317450694428556
H -5.732742244710534 4.581184045023244 -3.9116356764499005
H -4.21571363627654 4.697366428864995 -4.040713588881377
O -3.727094843719308 8.875790165784604 4.770381050531657
H -3.345863952289699 9.102582601489047 3.9088733283219064
H -4.366725284070803 9.584332663923627 4.937121484760025
C 3.04845446254454 -10.737901979861144 -0.6196058195300961
O 3.0470371550277244 -10.704310025595383 -1.816137402543269
O 3.0498717700613556 -10.771493934126905 0.5769257634830771