146

C -5.3564454929577465 1.0091607042253532 -0.0734429577464788
C -4.079135492957747 0.16955070422535368 -0.19788295774647868
C -4.333545492957747 -1.2789292957746463 0.3017270422535212
C -3.1403854929577464 -2.1745492957746464 0.7330270422535212
C -2.905235492957746 0.902300704225353 0.41966704225352136
C -2.7423854929577463 1.056130704225354 1.8024770422535212
C -1.8861754929577463 1.3499307042253532 -0.4326129577464788
C -1.5304554929577463 1.5279207042253526 2.3254170422535214
H -3.5237954929577464 0.7301007042253529 2.484817042253521
C -0.6776454929577462 1.8010507042253527 0.08546704225352131
H -1.9759254929577463 1.2426607042253535 -1.5115229577464788
C -0.4680254929577463 1.8513207042253539 1.4698070422535212
H -1.3950654929577464 1.5446707042253527 3.404047042253521
H 0.1461845070422536 1.9972507042253538 -0.6030529577464789
C -1.8679654929577463 -2.0866092957746467 -0.08765295774647863
C -0.6628654929577462 -1.814079295774647 0.5787970422535212
C -1.8438954929577462 -2.213429295774647 -1.4808029577464787
C 0.5129345070422537 -1.5763292957746469 -0.13022295774647863
H -0.6401854929577462 -1.7032692957746463 1.6609470422535213
C -0.6547954929577462 -1.9962392957746466 -2.1933129577464787
H -2.7578654929577464 -2.4351492957746466 -2.026182957746479
C 0.5308845070422537 -1.645769295774647 -1.5261029577464789
H 1.4044045070422537 -1.2610992957746463 0.41551704225352126
H -0.6795654929577464 -2.0467992957746466 -3.2793129577464786
C 1.7843245070422535 -1.2521692957746469 -2.2771629577464787
H 1.4981245070422535 -0.9384492957746469 -3.290282957746479
H 2.241984507042254 -0.38631929577464685 -1.8135029577464787
C 0.9385645070422537 2.0647807042253534 1.9815670422535212
H 1.0508945070422537 1.5807407042253532 2.9609770422535213
H 1.6053245070422537 1.5496207042253536 1.3096170422535214
C 3.9676945070422533 -1.6881692957746468 -3.314052957746479
H 4.795084507042254 -2.398849295774647 -3.4044129577464783
H 3.548404507042253 -1.4816192957746468 -4.303802957746479
H 4.307714507042253 -0.7637192957746466 -2.851282957746479
C 2.344694507042253 -3.565079295774647 -3.101282957746479
H 1.6334345070422536 -4.047909295774646 -2.4251929577464786
H 1.8561845070422536 -3.293109295774647 -4.041792957746479
H 3.1808045070422537 -4.243519295774647 -3.298122957746479
C 3.5156645070422536 -2.648489295774647 -1.1110629577464786
H 3.9311845070422535 -1.748249295774647 -0.6771029577464787
H 2.767184507042254 -3.1044092957746465 -0.45972295774647876
H 4.319224507042254 -3.371819295774647 -1.2863129577464787
C 2.963994507042253 3.381090704225353 2.401027042253521
H 3.3337945070422537 4.369820704225353 2.6912870422535216
H 3.120994507042253 2.671350704225353 3.2183370422535216
H 3.4665445070422534 3.0664207042253535 1.4881370422535212
C 1.2973745070422538 4.282440704225354 0.8488370422535213
H 1.7592145070422538 3.7367207042253527 0.02653704225352116
H 0.23311450704225378 4.4484607042253534 0.6605570422535213
H 1.7921845070422535 5.251370704225354 0.9736770422535213
C 0.7724845070422537 4.194670704225353 3.2772470422535216
H -0.2956954929577462 4.278220704225354 3.057857042253521
H 0.9298945070422537 3.612620704225354 4.190337042253521
H 1.2046345070422537 5.193640704225353 3.3918370422535213
N 2.876084507042253 -2.324759295774647 -2.4576629577464786
N 1.4527845070422536 3.504690704225353 2.1388470422535213
C -3.593905492957746 -3.637819295774647 0.8297870422535213
H -2.8952554929577463 -1.8680692957746468 1.7595270422535212
H -5.022615492957747 -1.2402792957746467 1.1579970422535213
H -4.898275492957747 -1.7933092957746464 -0.48931295774647876
H -3.883675492957746 0.07871070422535364 -1.2758929577464788
H -3.8751654929577466 -4.038529295774646 -0.1505529577464788
H -4.4603554929577465 -3.7321892957746465 1.4932570422535212
H -2.7953554929577464 -4.271929295774647 1.2313670422535212
H -5.648775492957746 1.147700704225353 0.9733970422535213
H -6.189795492957747 0.5254307042253537 -0.5943629577464788
H -5.2178854929577465 2.002970704225354 -0.5139729577464787
C 3.6710445070422537 1.0263707042253536 -0.27764295774647874
O 2.7356545070422538 1.6631507042253526 -0.7327029577464788
O 3.650814507042253 0.3883007042253537 0.7790570422535212
O 4.756604507042254 0.8696707042253538 -0.8334829577464786
O -1.679415836292847 -13.228366345301684 0.1238887000403186
H -1.7297368424270472 -13.282591981179106 -0.8422866120305974
H -0.7568740286440692 -12.987777156764803 0.2970805006525056
O -3.5489695629342606 7.422309754262044 7.3146575568339856
H -3.8323195576709823 7.583914812490638 6.4022081376672935
H -4.145534578338593 7.971038871329092 7.845664602717981
O 5.338728109054849 -1.5913973403595614 7.612041771833878
H 5.241338553612239 -2.102739394588869 6.794721800851127
H 4.585597603036952 -1.8707053021978841 8.154022811778033
O 1.367388696280166 -9.71695081722222 -9.119545876948703
H 0.966143701235004 -9.80918211674482 -9.996736391169863
H 1.6981519973762542 -8.806222911316915 -9.108045252906514
O 5.021339385198885 -5.382438151149169 9.858768643599388
H 5.025140201802745 -5.420426815260601 10.827019526424792
H 4.676891012441398 -6.247949977269861 9.591923104663575
O -0.5676355227831922 8.745329025021364 2.4993861467135723
H -0.1558098928526162 9.604109222499364 2.6778898717501525
H -0.897188929936624 8.827895009647968 1.5918954556780098
O 7.681574775077147 8.059560598411613 -2.3998313567836065
H 6.874950531820488 8.144834453071693 -1.8696869832380258
H 8.386402531146812 7.970314372522631 -1.7408815182235138
O -0.6613398363936522 6.773737849828664 11.295762035619944
H -1.3453132375382164 7.255447876542705 11.784743828317685
H -1.010372827838763 6.723506809351253 10.393201922521968
O 2.866863546662829 -4.565564109467811 12.811240772407494
H 3.0233330105921117 -4.185607604388163 13.68880428464199
H 3.5443846433304738 -5.253535463242818 12.729861879227148
O 9.980870360055773 -3.211417586494274 -8.664369448814426
H 10.521739012273525 -2.6592563653538166 -9.248789198495112
H 10.501757860353253 -3.2697890808770804 -7.849365813867097
O -5.786573459811453 -5.005878651514448 3.399652441402517
H -5.707076471251726 -5.035029748898906 2.434355699860717
H -6.536921688712594 -5.588588211230936 3.5904115793223976
O -8.67497545934653 -4.729399165714195 -3.282600224091215
H -8.706760367039168 -4.782059261957261 -2.3155511090993017
H -8.906297121584785 -5.624301141357147 -3.5734656343236297
O 3.4535819139662074 -13.024530196862258 -1.242012947370347
H 3.827613027801305 -13.252692954714725 -2.106310256583117
H 3.711188861296785 -13.765069959040856 -0.6726260265340085
O -0.8421511072178851 -7.510319464447017 1.7715183053363328
H -1.049324314515874 -7.73056316124922 0.8508993108023479
H -1.4926960553078292 -8.012905539379522 2.2845099739807564
O -0.12429950685112967 -0.7873309724810742 10.885835425897497
H 0.05460717345601279 0.1188584360214513 11.178718529813244
H -0.6801406189569303 -0.6739697016470227 10.100245313518354
O -2.03793194365248 -2.5513106913446872 -7.968359134987533
H -1.6069865805308103 -3.413254793759805 -8.069876696107421
H -2.9477352686859892 -2.7084071170772193 -8.26253691640556
O 0.3485023156851015 8.047202393546753 6.055307133590855
H 0.3985899069741836 8.072920823742882 5.087941043402086
H 1.092118299136433 8.59791530081716 6.342904955594923
O 3.2475112995234845 0.9699980788553749 7.340839487565258
H 4.058750310732614 1.3785307276510617 7.6784186611829695
H 3.115540212655351 1.390134031881769 6.477687497759613
O 9.031403192140775 -0.15932125574350486 9.222842637981476
H 8.39473947310055 -0.833037779594711 8.940472825062812
H 8.653810132845507 0.6711053234643494 8.896074949222042
O 7.021815745772668 -9.823844255965655 1.2561843373579356
H 7.385997383594807 -10.687298604490724 1.0096368174224606
H 7.799579247424515 -9.248333276290628 1.3094101964092149
O 0.9261145077952337 -5.028261661338427 3.5156706365668597
H 1.3352375730677375 -5.334622622751882 4.338913392796064
H 1.572109624732726 -5.261814785926365 2.83221969378594
O -2.3390363692837584 6.762153585405121 -8.94020517190502
H -1.5383846371869794 6.218912223008328 -8.887167610010591
H -3.047917544952187 6.119801907624632 -9.094586987982998
O -7.75777372529361 10.816026705655378 2.56293138323526
H -6.796972637026121 10.903231372105731 2.4722452661428895
H -7.9058047091231956 10.84168605790013 3.5202141887680996
O 1.8243846715082255 -3.576698892990227 -7.148792782168146
H 1.360406368247416 -4.309665037440732 -6.716991760755987
H 2.382547449830166 -3.2076877766522407 -6.447902595894345
C -9.737526932529475 -2.20065224126205 -1.495862199988854
O -9.939335267679978 -2.0774193908013467 -2.6692782889066398
O -9.535718597378972 -2.3238850917227536 -0.3224461110710682