146

C -5.3564454929577465 1.0091607042253532 -0.0734429577464788
C -4.079135492957747 0.16955070422535368 -0.19788295774647868
C -4.333545492957747 -1.2789292957746463 0.3017270422535212
C -3.1403854929577464 -2.1745492957746464 0.7330270422535212
C -2.905235492957746 0.902300704225353 0.41966704225352136
C -2.7423854929577463 1.056130704225354 1.8024770422535212
C -1.8861754929577463 1.3499307042253532 -0.4326129577464788
C -1.5304554929577463 1.5279207042253526 2.3254170422535214
H -3.5237954929577464 0.7301007042253529 2.484817042253521
C -0.6776454929577462 1.8010507042253527 0.08546704225352131
H -1.9759254929577463 1.2426607042253535 -1.5115229577464788
C -0.4680254929577463 1.8513207042253539 1.4698070422535212
H -1.3950654929577464 1.5446707042253527 3.404047042253521
H 0.1461845070422536 1.9972507042253538 -0.6030529577464789
C -1.8679654929577463 -2.0866092957746467 -0.08765295774647863
C -0.6628654929577462 -1.814079295774647 0.5787970422535212
C -1.8438954929577462 -2.213429295774647 -1.4808029577464787
C 0.5129345070422537 -1.5763292957746469 -0.13022295774647863
H -0.6401854929577462 -1.7032692957746463 1.6609470422535213
C -0.6547954929577462 -1.9962392957746466 -2.1933129577464787
H -2.7578654929577464 -2.4351492957746466 -2.026182957746479
C 0.5308845070422537 -1.645769295774647 -1.5261029577464789
H 1.4044045070422537 -1.2610992957746463 0.41551704225352126
H -0.6795654929577464 -2.0467992957746466 -3.2793129577464786
C 1.7843245070422535 -1.2521692957746469 -2.2771629577464787
H 1.4981245070422535 -0.9384492957746469 -3.290282957746479
H 2.241984507042254 -0.38631929577464685 -1.8135029577464787
C 0.9385645070422537 2.0647807042253534 1.9815670422535212
H 1.0508945070422537 1.5807407042253532 2.9609770422535213
H 1.6053245070422537 1.5496207042253536 1.3096170422535214
C 3.9676945070422533 -1.6881692957746468 -3.314052957746479
H 4.795084507042254 -2.398849295774647 -3.4044129577464783
H 3.548404507042253 -1.4816192957746468 -4.303802957746479
H 4.307714507042253 -0.7637192957746466 -2.851282957746479
C 2.344694507042253 -3.565079295774647 -3.101282957746479
H 1.6334345070422536 -4.047909295774646 -2.4251929577464786
H 1.8561845070422536 -3.293109295774647 -4.041792957746479
H 3.1808045070422537 -4.243519295774647 -3.298122957746479
C 3.5156645070422536 -2.648489295774647 -1.1110629577464786
H 3.9311845070422535 -1.748249295774647 -0.6771029577464787
H 2.767184507042254 -3.1044092957746465 -0.45972295774647876
H 4.319224507042254 -3.371819295774647 -1.2863129577464787
C 2.963994507042253 3.381090704225353 2.401027042253521
H 3.3337945070422537 4.369820704225353 2.6912870422535216
H 3.120994507042253 2.671350704225353 3.2183370422535216
H 3.4665445070422534 3.0664207042253535 1.4881370422535212
C 1.2973745070422538 4.282440704225354 0.8488370422535213
H 1.7592145070422538 3.7367207042253527 0.02653704225352116
H 0.23311450704225378 4.4484607042253534 0.6605570422535213
H 1.7921845070422535 5.251370704225354 0.9736770422535213
C 0.7724845070422537 4.194670704225353 3.2772470422535216
H -0.2956954929577462 4.278220704225354 3.057857042253521
H 0.9298945070422537 3.612620704225354 4.190337042253521
H 1.2046345070422537 5.193640704225353 3.3918370422535213
N 2.876084507042253 -2.324759295774647 -2.4576629577464786
N 1.4527845070422536 3.504690704225353 2.1388470422535213
C -3.593905492957746 -3.637819295774647 0.8297870422535213
H -2.8952554929577463 -1.8680692957746468 1.7595270422535212
H -5.022615492957747 -1.2402792957746467 1.1579970422535213
H -4.898275492957747 -1.7933092957746464 -0.48931295774647876
H -3.883675492957746 0.07871070422535364 -1.2758929577464788
H -3.8751654929577466 -4.038529295774646 -0.1505529577464788
H -4.4603554929577465 -3.7321892957746465 1.4932570422535212
H -2.7953554929577464 -4.271929295774647 1.2313670422535212
H -5.648775492957746 1.147700704225353 0.9733970422535213
H -6.189795492957747 0.5254307042253537 -0.5943629577464788
H -5.2178854929577465 2.002970704225354 -0.5139729577464787
C 3.6710445070422537 1.0263707042253536 -0.27764295774647874
O 2.7356545070422538 1.6631507042253526 -0.7327029577464788
O 3.650814507042253 0.3883007042253537 0.7790570422535212
O 4.756604507042254 0.8696707042253538 -0.8334829577464786
O 8.607315186117228 1.874489879264257 7.158586894543364
H 7.936982047104164 1.241375991979182 7.456559452621577
H 8.384651073980177 2.6907673294706673 7.63089374580718
O 6.658023828874294 -9.532042957285476 -4.1882957466715816
H 6.358410919216473 -9.31801613079126 -3.2919743875557836
H 5.976145905774862 -10.132008508333959 -4.526002394288559
O 2.982757308793054 -1.0127042579683516 -10.64768758283413
H 2.522285394913174 -1.2947711172731495 -11.452281430877806
H 2.8480720161567152 -1.7478923259837458 -10.030986422712589
O -11.740350950405023 4.796291099926712 0.19562417743250826
H -11.482319644061208 5.702460580361712 0.4219957184324068
H -11.04059443649955 4.249790487177571 0.5837476704236835
O -4.457445345379595 -2.9737829944418266 4.617947009460469
H -4.018753854447436 -3.037228306675039 3.756267356086112
H -5.354646413625064 -3.2981277020639497 4.4482628968373135
O -1.0351144155140979 6.264780715841473 4.244913558463307
H -1.1605581403160263 5.46309325955135 4.774562924775485
H -1.0806366604835258 6.983293315530689 4.893472972550241
O 4.862988889314399 -7.582161246846585 -3.138280762993818
H 4.590164083063379 -6.721487577727293 -3.4900972169564337
H 5.823973222743613 -7.502134238682319 -3.0430613680793117
O -6.903491172431009 -6.49931130543477 -7.142676846244445
H -6.437724659935537 -6.769242868401139 -7.94838514584942
H -6.194878664945356 -6.209731894779448 -6.548560676241127
O -2.976641018394395 6.026740094716912 6.49203913930464
H -2.9820687464723012 6.732823726670014 7.155653335472737
H -2.5386919009961337 6.428301928734024 5.726591160451148
O -6.0670084410538205 2.941487494682314 14.138068273628162
H -5.980821544654846 3.6271933764498314 14.817293287521604
H -6.824745745278471 2.4141986755714546 14.43262323170396
O -2.543281634638316 -4.031636430215688 -8.91911351311919
H -2.719019305953667 -4.871403680034171 -9.369529536272188
H -3.3560696354878745 -3.520783387564938 -9.050896587864965
O -7.284998546067654 9.61976308767937 5.347005051445413
H -7.725208189883815 10.086710526070933 4.620958967390959
H -6.447998590336519 10.095295939171049 5.457736824474987
O 5.315450986956634 -3.781340627907415 8.783804884059002
H 4.794916122172315 -3.813496152427276 9.600491380633313
H 5.249853235792383 -2.856949507892926 8.500679582150902
O 1.4705545628140921 11.613164831083768 8.867842273784788
H 1.6138273732508566 10.71035649591506 9.189365785583629
H 1.0466467181613819 11.489908960032125 8.005246149406064
O 3.229131252193376 -9.64372884979137 2.006161912064832
H 3.4314472544158443 -9.573507125877443 1.0611198486436977
H 2.3976585777492474 -10.140706777769664 2.0312233377051836
O -3.5969308869292806 4.949473630737829 9.833986517089293
H -4.160746296108106 4.178999046444711 9.668310760773352
H -3.3503258500661928 5.253952863575628 8.947735820692241
O -5.458735993349325 8.174282284769358 -5.825853060121161
H -5.94800678948749 8.643267271141225 -6.518409575868511
H -6.0797077239656385 7.496934011048355 -5.518354490754479
O 3.7449139692486226 10.308034320826586 0.16908904161932048
H 4.321661356207406 10.220674821761719 0.9428448987598994
H 3.5574881533239706 9.392662191140055 -0.08767421902776329
O 8.845037526961136 -3.161853273571201 3.510973918157296
H 9.627850893472411 -2.596026698680149 3.5885037656893632
H 8.32439142415359 -2.7459843740821976 2.807452320500821
O -3.5683262537333675 8.689998277286769 -5.6681622703738315
H -3.422547943502008 9.29776332330867 -4.9276639989375735
H -2.745180955355091 8.181260011533551 -5.718947494761897
O -10.084333607633951 -0.5081975475875322 8.829764538291153
H -10.004119735407262 0.020249913193604474 8.021509397388002
H -9.184265051135696 -0.5256614480746122 9.18828029817198
O -2.9111014213284685 -5.1109357468314665 -0.948923235271538
H -2.874895735919258 -5.09664074462345 -1.9171443660861485
H -1.988149832315916 -4.992825525295701 -0.6784194752089927
O 1.9872186498639102 -4.729806721512105 6.858554245924429
H 1.3100061195999073 -4.904471678701043 6.187851108550214
H 1.8325176792279043 -3.8076304724319794 7.112759909938406
O -3.6190898529292608 -9.88514111226614 -0.600542822294031
H -3.93236950021069 -9.021872165667649 -0.29136658559729467
H -3.899557287466614 -10.498753943160672 0.0949995964164545
C 8.656773540454545 -6.970307563099005 6.708722960671599
O 7.679648975307259 -6.799428669476019 6.0387630773950605
O 9.633898105601828 -7.141186456721989 7.378682843948138