146

C -5.3564454929577465 1.0091607042253532 -0.0734429577464788
C -4.079135492957747 0.16955070422535368 -0.19788295774647868
C -4.333545492957747 -1.2789292957746463 0.3017270422535212
C -3.1403854929577464 -2.1745492957746464 0.7330270422535212
C -2.905235492957746 0.902300704225353 0.41966704225352136
C -2.7423854929577463 1.056130704225354 1.8024770422535212
C -1.8861754929577463 1.3499307042253532 -0.4326129577464788
C -1.5304554929577463 1.5279207042253526 2.3254170422535214
H -3.5237954929577464 0.7301007042253529 2.484817042253521
C -0.6776454929577462 1.8010507042253527 0.08546704225352131
H -1.9759254929577463 1.2426607042253535 -1.5115229577464788
C -0.4680254929577463 1.8513207042253539 1.4698070422535212
H -1.3950654929577464 1.5446707042253527 3.404047042253521
H 0.1461845070422536 1.9972507042253538 -0.6030529577464789
C -1.8679654929577463 -2.0866092957746467 -0.08765295774647863
C -0.6628654929577462 -1.814079295774647 0.5787970422535212
C -1.8438954929577462 -2.213429295774647 -1.4808029577464787
C 0.5129345070422537 -1.5763292957746469 -0.13022295774647863
H -0.6401854929577462 -1.7032692957746463 1.6609470422535213
C -0.6547954929577462 -1.9962392957746466 -2.1933129577464787
H -2.7578654929577464 -2.4351492957746466 -2.026182957746479
C 0.5308845070422537 -1.645769295774647 -1.5261029577464789
H 1.4044045070422537 -1.2610992957746463 0.41551704225352126
H -0.6795654929577464 -2.0467992957746466 -3.2793129577464786
C 1.7843245070422535 -1.2521692957746469 -2.2771629577464787
H 1.4981245070422535 -0.9384492957746469 -3.290282957746479
H 2.241984507042254 -0.38631929577464685 -1.8135029577464787
C 0.9385645070422537 2.0647807042253534 1.9815670422535212
H 1.0508945070422537 1.5807407042253532 2.9609770422535213
H 1.6053245070422537 1.5496207042253536 1.3096170422535214
C 3.9676945070422533 -1.6881692957746468 -3.314052957746479
H 4.795084507042254 -2.398849295774647 -3.4044129577464783
H 3.548404507042253 -1.4816192957746468 -4.303802957746479
H 4.307714507042253 -0.7637192957746466 -2.851282957746479
C 2.344694507042253 -3.565079295774647 -3.101282957746479
H 1.6334345070422536 -4.047909295774646 -2.4251929577464786
H 1.8561845070422536 -3.293109295774647 -4.041792957746479
H 3.1808045070422537 -4.243519295774647 -3.298122957746479
C 3.5156645070422536 -2.648489295774647 -1.1110629577464786
H 3.9311845070422535 -1.748249295774647 -0.6771029577464787
H 2.767184507042254 -3.1044092957746465 -0.45972295774647876
H 4.319224507042254 -3.371819295774647 -1.2863129577464787
C 2.963994507042253 3.381090704225353 2.401027042253521
H 3.3337945070422537 4.369820704225353 2.6912870422535216
H 3.120994507042253 2.671350704225353 3.2183370422535216
H 3.4665445070422534 3.0664207042253535 1.4881370422535212
C 1.2973745070422538 4.282440704225354 0.8488370422535213
H 1.7592145070422538 3.7367207042253527 0.02653704225352116
H 0.23311450704225378 4.4484607042253534 0.6605570422535213
H 1.7921845070422535 5.251370704225354 0.9736770422535213
C 0.7724845070422537 4.194670704225353 3.2772470422535216
H -0.2956954929577462 4.278220704225354 3.057857042253521
H 0.9298945070422537 3.612620704225354 4.190337042253521
H 1.2046345070422537 5.193640704225353 3.3918370422535213
N 2.876084507042253 -2.324759295774647 -2.4576629577464786
N 1.4527845070422536 3.504690704225353 2.1388470422535213
C -3.593905492957746 -3.637819295774647 0.8297870422535213
H -2.8952554929577463 -1.8680692957746468 1.7595270422535212
H -5.022615492957747 -1.2402792957746467 1.1579970422535213
H -4.898275492957747 -1.7933092957746464 -0.48931295774647876
H -3.883675492957746 0.07871070422535364 -1.2758929577464788
H -3.8751654929577466 -4.038529295774646 -0.1505529577464788
H -4.4603554929577465 -3.7321892957746465 1.4932570422535212
H -2.7953554929577464 -4.271929295774647 1.2313670422535212
H -5.648775492957746 1.147700704225353 0.9733970422535213
H -6.189795492957747 0.5254307042253537 -0.5943629577464788
H -5.2178854929577465 2.002970704225354 -0.5139729577464787
C 3.6710445070422537 1.0263707042253536 -0.27764295774647874
O 2.7356545070422538 1.6631507042253526 -0.7327029577464788
O 3.650814507042253 0.3883007042253537 0.7790570422535212
O 4.756604507042254 0.8696707042253538 -0.8334829577464786
O 5.855372972982712 6.920227355912764 1.9191116390418803
H 6.820425950557282 6.93852819009896 2.0045820248053086
H 5.53904074040435 7.28544732667954 2.7590582063216704
O -10.574267956903267 2.588326051448534 10.323117566224612
H -11.341339022949903 2.135506387068908 10.704593237906572
H -10.93072056773486 3.436281010226299 10.018362142293327
O -1.0687677845977284 1.5585731530003697 -12.790608148425472
H -1.328610044771616 1.1616820946517206 -13.635550066269898
H -1.8984090419812998 1.6138507058498384 -12.293012207427175
O -6.772936347837044 -2.444625338660967 -1.299769267523764
H -5.821238053209935 -2.263165202581531 -1.317374150877155
H -6.870063998360731 -3.118175293786462 -0.6099442014713685
O -1.7497500579409868 -12.766076745703812 -3.6783831764357773
H -2.356902235322597 -13.064730061849573 -4.372025582258773
H -1.1613125888313252 -12.145314629370876 -4.133748616685333
O -10.828987071492856 -2.973160930483715 -3.564441116332387
H -11.778493902846213 -2.926727519053254 -3.3766964162308004
H -10.553483863042723 -2.04520298927641 -3.608645027742843
O -1.622321929180444 4.652522878473809 -4.5406219554776195
H -1.0660887483011452 4.312843152618861 -3.8235517432724233
H -1.2657612233442017 5.5365554903217875 -4.714727522714289
O 6.674582564333218 -6.136909790654187 -5.470361392226947
H 6.660055893854556 -7.08576495163333 -5.666397654760313
H 7.3115012673904385 -6.057617009356878 -4.744407423417599
O -3.3493519709041863 8.978946440169105 1.4539657465021583
H -2.7779157216391486 9.04924852945165 2.2333793633760335
H -2.7491783336459217 9.133288578627607 0.7090281291567591
O 6.003300146521539 -2.2527749385421973 -11.602421553936582
H 6.055114183706626 -1.7616550898197652 -12.43613850628998
H 5.569349676343971 -3.0839451716269064 -11.84697211592035
O 4.667896882521088 10.249017881243999 2.4361968561213834
H 5.26974665578936 10.501104395070278 3.152574268428502
H 4.588075016812368 11.054360742584546 1.9032678836094732
O -2.778387695061567 3.537712900841437 5.069274550903828
H -2.845022405963099 3.4191197420576978 4.109867007212012
H -2.3606318539382816 2.7196269993064446 5.377782993603626
O -12.519132259236773 3.7883395079013216 2.2244158688226063
H -13.147139791808323 3.082321310465326 2.439153384926855
H -12.060998153277904 3.9566755284687773 3.0615168600039455
O 7.423018921418536 6.491879338344264 -6.547553536753623
H 7.424989478061305 6.601969668316592 -7.5102807011429435
H 7.5371686686979 7.392513220628892 -6.208746232261859
O -6.892174664050314 4.5597988376511775 -2.064796109643989
H -6.890507038343333 4.609770507323859 -1.097083648137666
H -6.9076089296809355 5.486666383231669 -2.3470022057759423
O 5.233227663518644 4.8235546322171805 -4.466593683514974
H 5.464153264659876 4.018891405773179 -3.9785795283449725
H 5.177402019355984 4.530296099715773 -5.388463996991303
O 8.754675772460905 -0.560435094079768 5.935518289200838
H 8.74039537678886 -0.478919431918575 6.900981195801539
H 8.410696716556739 0.29010057412309065 5.623701948201852
O 1.0403249312644864 6.372184840932922 10.903877272269552
H 1.1436967523573833 6.7294222777897765 10.009079508966646
H 0.9169077438874487 7.158240494901461 11.456911313739003
O -5.778831008522875 -2.296166519682724 10.651253387883166
H -6.0158961509293825 -3.1591627774098665 11.02274354159485
H -4.970511410039941 -2.4725515211209705 10.146803487223035
O 3.0759273989832088 -11.273675277692215 -3.8684465344543164
H 2.7001007468767595 -10.550632375562735 -4.392784828065075
H 2.849671066450134 -11.0425549436532 -2.955017058532735
O -12.614733827744335 4.744724285620185 -0.5045019368862631
H -11.84420163316477 4.986389742028118 -1.0400813438797991
H -12.249771152962053 4.169160309033017 0.1843306256214401
O 3.635965149652825 2.8433299239648755 -8.620371166874765
H 4.292358942091936 2.5944444789514627 -7.952411152047619
H 3.275055356260008 3.680964670271019 -8.293149381056953
O 1.7112578787239925 -5.068486457047698 3.927468013291847
H 1.7265813205202645 -5.0233514035025575 4.895298254590905
H 1.931324988033076 -4.167257537799623 3.647612967221047
O 4.34584957158651 -6.4754918950755425 11.056790399184832
H 4.983273715157422 -5.939948287706859 11.552623902187026
H 4.894965763207924 -6.978626652460045 10.43688010865012
C 9.45788922458929 8.548924227453508 0.8997852047998298
O 9.491888868727976 9.523612089082981 0.20577810549132214
O 9.423889580450602 7.574236365824036 1.5937923041083375