146

C -5.3564454929577465 1.0091607042253532 -0.0734429577464788
C -4.079135492957747 0.16955070422535368 -0.19788295774647868
C -4.333545492957747 -1.2789292957746463 0.3017270422535212
C -3.1403854929577464 -2.1745492957746464 0.7330270422535212
C -2.905235492957746 0.902300704225353 0.41966704225352136
C -2.7423854929577463 1.056130704225354 1.8024770422535212
C -1.8861754929577463 1.3499307042253532 -0.4326129577464788
C -1.5304554929577463 1.5279207042253526 2.3254170422535214
H -3.5237954929577464 0.7301007042253529 2.484817042253521
C -0.6776454929577462 1.8010507042253527 0.08546704225352131
H -1.9759254929577463 1.2426607042253535 -1.5115229577464788
C -0.4680254929577463 1.8513207042253539 1.4698070422535212
H -1.3950654929577464 1.5446707042253527 3.404047042253521
H 0.1461845070422536 1.9972507042253538 -0.6030529577464789
C -1.8679654929577463 -2.0866092957746467 -0.08765295774647863
C -0.6628654929577462 -1.814079295774647 0.5787970422535212
C -1.8438954929577462 -2.213429295774647 -1.4808029577464787
C 0.5129345070422537 -1.5763292957746469 -0.13022295774647863
H -0.6401854929577462 -1.7032692957746463 1.6609470422535213
C -0.6547954929577462 -1.9962392957746466 -2.1933129577464787
H -2.7578654929577464 -2.4351492957746466 -2.026182957746479
C 0.5308845070422537 -1.645769295774647 -1.5261029577464789
H 1.4044045070422537 -1.2610992957746463 0.41551704225352126
H -0.6795654929577464 -2.0467992957746466 -3.2793129577464786
C 1.7843245070422535 -1.2521692957746469 -2.2771629577464787
H 1.4981245070422535 -0.9384492957746469 -3.290282957746479
H 2.241984507042254 -0.38631929577464685 -1.8135029577464787
C 0.9385645070422537 2.0647807042253534 1.9815670422535212
H 1.0508945070422537 1.5807407042253532 2.9609770422535213
H 1.6053245070422537 1.5496207042253536 1.3096170422535214
C 3.9676945070422533 -1.6881692957746468 -3.314052957746479
H 4.795084507042254 -2.398849295774647 -3.4044129577464783
H 3.548404507042253 -1.4816192957746468 -4.303802957746479
H 4.307714507042253 -0.7637192957746466 -2.851282957746479
C 2.344694507042253 -3.565079295774647 -3.101282957746479
H 1.6334345070422536 -4.047909295774646 -2.4251929577464786
H 1.8561845070422536 -3.293109295774647 -4.041792957746479
H 3.1808045070422537 -4.243519295774647 -3.298122957746479
C 3.5156645070422536 -2.648489295774647 -1.1110629577464786
H 3.9311845070422535 -1.748249295774647 -0.6771029577464787
H 2.767184507042254 -3.1044092957746465 -0.45972295774647876
H 4.319224507042254 -3.371819295774647 -1.2863129577464787
C 2.963994507042253 3.381090704225353 2.401027042253521
H 3.3337945070422537 4.369820704225353 2.6912870422535216
H 3.120994507042253 2.671350704225353 3.2183370422535216
H 3.4665445070422534 3.0664207042253535 1.4881370422535212
C 1.2973745070422538 4.282440704225354 0.8488370422535213
H 1.7592145070422538 3.7367207042253527 0.02653704225352116
H 0.23311450704225378 4.4484607042253534 0.6605570422535213
H 1.7921845070422535 5.251370704225354 0.9736770422535213
C 0.7724845070422537 4.194670704225353 3.2772470422535216
H -0.2956954929577462 4.278220704225354 3.057857042253521
H 0.9298945070422537 3.612620704225354 4.190337042253521
H 1.2046345070422537 5.193640704225353 3.3918370422535213
N 2.876084507042253 -2.324759295774647 -2.4576629577464786
N 1.4527845070422536 3.504690704225353 2.1388470422535213
C -3.593905492957746 -3.637819295774647 0.8297870422535213
H -2.8952554929577463 -1.8680692957746468 1.7595270422535212
H -5.022615492957747 -1.2402792957746467 1.1579970422535213
H -4.898275492957747 -1.7933092957746464 -0.48931295774647876
H -3.883675492957746 0.07871070422535364 -1.2758929577464788
H -3.8751654929577466 -4.038529295774646 -0.1505529577464788
H -4.4603554929577465 -3.7321892957746465 1.4932570422535212
H -2.7953554929577464 -4.271929295774647 1.2313670422535212
H -5.648775492957746 1.147700704225353 0.9733970422535213
H -6.189795492957747 0.5254307042253537 -0.5943629577464788
H -5.2178854929577465 2.002970704225354 -0.5139729577464787
C 3.6710445070422537 1.0263707042253536 -0.27764295774647874
O 2.7356545070422538 1.6631507042253526 -0.7327029577464788
O 3.650814507042253 0.3883007042253537 0.7790570422535212
O 4.756604507042254 0.8696707042253538 -0.8334829577464786
O -3.5315327632063243 6.524524010303271 -1.6611817664323212
H -3.566766567254528 6.461977855692017 -0.6948412909809206
H -4.449080121130127 6.382578648858335 -1.9385268666798554
O 9.537688659427607 -0.693591111770961 -0.7011346182116305
H 9.559289130768713 -0.7822407653805556 -1.6658325063884116
H 9.549428699638636 -1.608353865078172 -0.3817082246283002
O -13.609625810748813 -7.089242841627462 4.825449373933139
H -14.269140976696328 -6.842755247703091 5.491220332166221
H -13.759520053246218 -6.46050112730502 4.103523119363459
O -7.140092655648418 5.908564047176308 10.936044647173775
H -7.727923564045806 5.96866851739531 10.168054000946626
H -6.735453093850044 6.787353952404687 10.990423611822969
O 9.953375882733644 1.319876918194014 0.8926134533056982
H 9.993230385359126 1.292155063562018 -0.07517292513545287
H 9.107673864448977 0.8968434908513312 1.1042564544182831
O -7.648063478843728 -3.2522073348066227 2.9435704583074673
H -8.055468384318 -3.5414282376613957 3.7738353974969825
H -7.0352654137693325 -2.5523337968387185 3.2148959207936945
O -8.292479877428079 1.4754084526881117 9.491764326157593
H -8.571211540432772 1.8247502254000154 8.631975780771493
H -7.3448258929622465 1.6742028318089903 9.529109538112754
O -0.39973665215312515 -4.81418083716447 6.783047057682888
H -0.9894536164455765 -5.1638249989825145 7.467846458261082
H -0.9096044731532515 -4.908770008407753 5.964481459766575
O 6.3081539090588254 1.6756727425816398 8.510111192241254
H 7.1845771697414325 1.5064635190623998 8.887229030205047
H 6.053794059178575 0.8264718615430755 8.118804567313664
O 0.1520277426510197 -2.0551940249851177 9.63766018448188
H 0.30580212935018247 -1.2728607705978607 9.086955659373233
H -0.811130010957223 -2.0837406862847336 9.740003597034754
O -9.087136529206896 5.602035047542159 7.985690523278672
H -9.395737435353501 5.967627574323689 8.828349969310691
H -9.319178811276831 4.6627437041916595 8.03907681307849
O 8.346001810518906 5.977824066441664 5.6532439092690385
H 8.90340478937869 6.0820448722961125 4.867491213005584
H 8.560485614141818 5.089778600825021 5.976251483918876
O -3.664975557274495 -4.292205221218867 -6.186234223633773
H -4.525961827137984 -4.713836127405078 -6.32729229307736
H -3.05678948804249 -5.036773722622838 -6.065034404289159
O 5.777814144863807 -2.197408818645316 0.8161554432349191
H 4.976513618126937 -2.426452586301315 1.3105477725131545
H 6.49814993061648 -2.5409555121209406 1.3657498113520286
O -4.481540832597826 3.772459491260273 -1.9881253095300462
H -5.032827839108537 3.653757199687731 -2.776135309040134
H -3.9976245636818737 2.936320608319903 -1.91290059674433
O 2.4719588672692736 0.0741190002207831 -4.739071948119877
H 1.7752956221578535 0.43106730020004597 -5.310224809403737
H 3.163310843862256 0.7527256745040126 -4.761148414758142
O -8.24880521026076 -4.320048072291533 -1.3112945590228553
H -8.523624922411441 -4.541391077570845 -2.2137627062321292
H -7.433702220145337 -3.810429275031218 -1.4331868938263326
O 7.199240362997415 -2.3644623670497777 -1.721537024706166
H 6.824257565870323 -2.813844401419014 -2.493813559339266
H 6.806683573239865 -1.4790778747569382 -1.7524467630194687
O 9.789290672817692 6.850335295814395 1.3795209288567574
H 9.979905991165072 7.5390994770717965 0.7251226862489786
H 9.127028492742614 7.255339853304964 1.9594709763212559
O 2.3072659932042763 5.815247166587668 -10.162100331629356
H 2.421708418199817 5.598082634989055 -11.099495581498212
H 3.078639186090598 5.415163406911573 -9.733289969301438
O 0.034173573455426265 -14.535328769168107 -0.0835367679050445
H -0.08383506667600304 -14.160467774786408 0.8021948803076051
H 0.26389245396072525 -13.770668719372484 -0.6326143475656489
O 1.8946893280502157 9.487120807729994 6.157328319632714
H 2.5892764591430364 10.079031107900576 6.48314770329829
H 1.1310064483285822 10.069926009894402 6.030487869262284
O -4.106353781369581 4.572239114645378 1.039065191202728
H -4.648233292683356 4.855600472785401 0.2873735703691662
H -4.390508866451493 3.6602516208004623 1.201843085870773
O 3.6442707233411595 -5.084318082890292 10.732873256236822
H 3.9123121803454914 -5.183805599491288 11.658736835965263
H 3.05140954434547 -4.317900385160773 10.741899847333455
C 8.527944932626399 10.759234592844235 -3.67606609818366
O 8.219060305461436 10.611019557100517 -2.5291394014934783
O 8.83682955979136 10.907449628587953 -4.822992794873842