146

C -5.3564454929577465 1.0091607042253532 -0.0734429577464788
C -4.079135492957747 0.16955070422535368 -0.19788295774647868
C -4.333545492957747 -1.2789292957746463 0.3017270422535212
C -3.1403854929577464 -2.1745492957746464 0.7330270422535212
C -2.905235492957746 0.902300704225353 0.41966704225352136
C -2.7423854929577463 1.056130704225354 1.8024770422535212
C -1.8861754929577463 1.3499307042253532 -0.4326129577464788
C -1.5304554929577463 1.5279207042253526 2.3254170422535214
H -3.5237954929577464 0.7301007042253529 2.484817042253521
C -0.6776454929577462 1.8010507042253527 0.08546704225352131
H -1.9759254929577463 1.2426607042253535 -1.5115229577464788
C -0.4680254929577463 1.8513207042253539 1.4698070422535212
H -1.3950654929577464 1.5446707042253527 3.404047042253521
H 0.1461845070422536 1.9972507042253538 -0.6030529577464789
C -1.8679654929577463 -2.0866092957746467 -0.08765295774647863
C -0.6628654929577462 -1.814079295774647 0.5787970422535212
C -1.8438954929577462 -2.213429295774647 -1.4808029577464787
C 0.5129345070422537 -1.5763292957746469 -0.13022295774647863
H -0.6401854929577462 -1.7032692957746463 1.6609470422535213
C -0.6547954929577462 -1.9962392957746466 -2.1933129577464787
H -2.7578654929577464 -2.4351492957746466 -2.026182957746479
C 0.5308845070422537 -1.645769295774647 -1.5261029577464789
H 1.4044045070422537 -1.2610992957746463 0.41551704225352126
H -0.6795654929577464 -2.0467992957746466 -3.2793129577464786
C 1.7843245070422535 -1.2521692957746469 -2.2771629577464787
H 1.4981245070422535 -0.9384492957746469 -3.290282957746479
H 2.241984507042254 -0.38631929577464685 -1.8135029577464787
C 0.9385645070422537 2.0647807042253534 1.9815670422535212
H 1.0508945070422537 1.5807407042253532 2.9609770422535213
H 1.6053245070422537 1.5496207042253536 1.3096170422535214
C 3.9676945070422533 -1.6881692957746468 -3.314052957746479
H 4.795084507042254 -2.398849295774647 -3.4044129577464783
H 3.548404507042253 -1.4816192957746468 -4.303802957746479
H 4.307714507042253 -0.7637192957746466 -2.851282957746479
C 2.344694507042253 -3.565079295774647 -3.101282957746479
H 1.6334345070422536 -4.047909295774646 -2.4251929577464786
H 1.8561845070422536 -3.293109295774647 -4.041792957746479
H 3.1808045070422537 -4.243519295774647 -3.298122957746479
C 3.5156645070422536 -2.648489295774647 -1.1110629577464786
H 3.9311845070422535 -1.748249295774647 -0.6771029577464787
H 2.767184507042254 -3.1044092957746465 -0.45972295774647876
H 4.319224507042254 -3.371819295774647 -1.2863129577464787
C 2.963994507042253 3.381090704225353 2.401027042253521
H 3.3337945070422537 4.369820704225353 2.6912870422535216
H 3.120994507042253 2.671350704225353 3.2183370422535216
H 3.4665445070422534 3.0664207042253535 1.4881370422535212
C 1.2973745070422538 4.282440704225354 0.8488370422535213
H 1.7592145070422538 3.7367207042253527 0.02653704225352116
H 0.23311450704225378 4.4484607042253534 0.6605570422535213
H 1.7921845070422535 5.251370704225354 0.9736770422535213
C 0.7724845070422537 4.194670704225353 3.2772470422535216
H -0.2956954929577462 4.278220704225354 3.057857042253521
H 0.9298945070422537 3.612620704225354 4.190337042253521
H 1.2046345070422537 5.193640704225353 3.3918370422535213
N 2.876084507042253 -2.324759295774647 -2.4576629577464786
N 1.4527845070422536 3.504690704225353 2.1388470422535213
C -3.593905492957746 -3.637819295774647 0.8297870422535213
H -2.8952554929577463 -1.8680692957746468 1.7595270422535212
H -5.022615492957747 -1.2402792957746467 1.1579970422535213
H -4.898275492957747 -1.7933092957746464 -0.48931295774647876
H -3.883675492957746 0.07871070422535364 -1.2758929577464788
H -3.8751654929577466 -4.038529295774646 -0.1505529577464788
H -4.4603554929577465 -3.7321892957746465 1.4932570422535212
H -2.7953554929577464 -4.271929295774647 1.2313670422535212
H -5.648775492957746 1.147700704225353 0.9733970422535213
H -6.189795492957747 0.5254307042253537 -0.5943629577464788
H -5.2178854929577465 2.002970704225354 -0.5139729577464787
C 3.6710445070422537 1.0263707042253536 -0.27764295774647874
O 2.7356545070422538 1.6631507042253526 -0.7327029577464788
O 3.650814507042253 0.3883007042253537 0.7790570422535212
O 4.756604507042254 0.8696707042253538 -0.8334829577464786
O -1.354798139679298 11.592762608800394 -8.315139372944701
H -1.0505431402326035 12.00275797363631 -9.138729108811267
H -1.000885628756416 10.691703610120939 -8.357572376739338
O -1.796317687529584 -7.657832091784411 1.7543974827344386
H -1.4560204647779837 -8.000024773728512 0.9141181687492312
H -1.7335066087847386 -6.695693436818701 1.6579302794595376
O -1.3458660002108984 -4.717414922770878 -0.538025991974435
H -1.3264542510181927 -4.213879461145018 -1.3656989828219748
H -0.5356972299335238 -5.248165646538535 -0.5678953272090008
O -10.009098961374644 -1.848960119727225 -1.0557741132138951
H -10.262759244988116 -1.7737408001426611 -0.12359072386479886
H -9.040656409225514 -1.8732277854567285 -1.0335919607728175
O 5.734311998835043 5.538666309776554 7.173807830843932
H 6.064804974412224 5.543122890040355 8.084698542667525
H 4.820288871077546 5.228116787751863 7.257966375238633
O -5.55730739269414 -7.21829935582089 -1.1655156628347387
H -6.215589018976363 -6.5271799663537164 -1.332807763370763
H -5.448466371815144 -7.209735024353652 -0.20268534097084068
O -0.8944887695178145 -4.61516155394338 -4.710362906370027
H -0.055097329454754984 -4.50734307157422 -5.182342293746717
H -1.5396623548628832 -4.162013933499035 -5.273719119754257
O 4.559833638913429 -2.732755286389722 1.106927065439796
H 3.8139682646921327 -2.658524521904038 1.7210459415880526
H 4.48227103574596 -3.6310691481123065 0.7519929972990447
O -1.3426277993197278 4.332724329984571 5.548788601755392
H -1.6625982305281117 4.69176930838491 6.390021615573693
H -2.083961176793231 3.7993922707357686 5.224838478555603
O -9.664462599818815 1.7191440011576278 0.2637287718281227
H -9.918729849596891 2.5655189576450796 -0.13371928216278528
H -9.484709078920263 1.9401037111535355 1.1899185054049406
O -6.482677086826932 7.416931017692384 0.7411520128130753
H -6.558875868524385 7.176512090888414 1.6767586834831016
H -7.267173292656248 7.96079566059884 0.574602027716582
O -7.1812212084563996 4.708936944994155 -1.4817033341259087
H -7.9812848201066755 4.200353504223868 -1.6822238018776394
H -6.5762034778439915 4.488629736883716 -2.205844359064556
O 5.357457047680941 1.478170421770622 5.282356917535507
H 5.369213900616046 2.203999788995639 5.924229851209139
H 4.775901669857585 1.7990497237009475 4.576813325390102
O 3.242018838429982 5.986906379421304 8.982811118332753
H 3.3286508476774603 6.529016865516594 9.78129622948967
H 4.010843181459316 5.397989581691453 9.015185169934735
O 2.3258508616231484 -5.112323318327452 -16.371566075727937
H 3.0867442527119087 -5.522095136650954 -16.80985326605558
H 2.7193079536935283 -4.603157680479961 -15.647063615942688
O 8.502608284515052 5.123723327127394 -0.6736492294674975
H 7.861975821239935 5.089580368472936 0.05256813625186918
H 7.960958378969938 5.311151519212875 -1.4549609450679581
O 5.497996945786843 -5.002935873437554 -9.951257727869324
H 5.661432093565638 -4.18004070464712 -9.466386765084495
H 5.620843885938932 -5.695605885944719 -9.284865330427252
O -4.961907907431859 -8.423745758498924 3.20772265094022
H -5.159451678966362 -8.378615813919849 2.260143048305056
H -4.689075457515888 -7.521690292564482 3.433156310695471
O -0.11402463201441204 6.903452938172733 2.7975579161026283
H -0.569222396323553 7.424919272732712 3.4756694218216664
H -0.2612350939084407 5.985353598735385 3.0702933687552854
O 7.77772783404977 3.6904124087438905 9.545269990909
H 8.319372647127071 3.5663823265638563 10.339124380630986
H 7.535080953082055 2.7893016233224226 9.28434128828366
O -0.154592664140643 0.07959727611717193 -5.15666876643669
H 0.7309263294448041 -0.05186902091481782 -4.785804799942081
H -0.5898709559608021 -0.7772035239612345 -5.032623847334269
O -4.849581011628095 4.089041221056653 -2.959898901150725
H -4.998298314504857 3.150971660912845 -2.767867598867309
H -5.544806763285543 4.310506137432072 -3.5975323298126525
O 0.14190929422753684 -7.719360067971597 -6.31298254930297
H 0.09989736508657177 -8.391130397709864 -7.010067177445919
H -0.5111233358335409 -7.057573914462242 -6.5860199375830435
O -0.9666283722896076 4.183504919738716 -8.86562215208168
H -1.2549477265745281 4.56347835659325 -8.022141568944356
H -1.6963217558068786 4.379632367512793 -9.472288068860218
C 10.057849653141869 -0.11687490106606457 4.271232912594028
O 9.24980557933458 -0.3959212450773508 5.109096964799909
O 10.865893726949153 0.16217144294522168 3.433368860388147