146

C -5.3564454929577465 1.0091607042253532 -0.0734429577464788
C -4.079135492957747 0.16955070422535368 -0.19788295774647868
C -4.333545492957747 -1.2789292957746463 0.3017270422535212
C -3.1403854929577464 -2.1745492957746464 0.7330270422535212
C -2.905235492957746 0.902300704225353 0.41966704225352136
C -2.7423854929577463 1.056130704225354 1.8024770422535212
C -1.8861754929577463 1.3499307042253532 -0.4326129577464788
C -1.5304554929577463 1.5279207042253526 2.3254170422535214
H -3.5237954929577464 0.7301007042253529 2.484817042253521
C -0.6776454929577462 1.8010507042253527 0.08546704225352131
H -1.9759254929577463 1.2426607042253535 -1.5115229577464788
C -0.4680254929577463 1.8513207042253539 1.4698070422535212
H -1.3950654929577464 1.5446707042253527 3.404047042253521
H 0.1461845070422536 1.9972507042253538 -0.6030529577464789
C -1.8679654929577463 -2.0866092957746467 -0.08765295774647863
C -0.6628654929577462 -1.814079295774647 0.5787970422535212
C -1.8438954929577462 -2.213429295774647 -1.4808029577464787
C 0.5129345070422537 -1.5763292957746469 -0.13022295774647863
H -0.6401854929577462 -1.7032692957746463 1.6609470422535213
C -0.6547954929577462 -1.9962392957746466 -2.1933129577464787
H -2.7578654929577464 -2.4351492957746466 -2.026182957746479
C 0.5308845070422537 -1.645769295774647 -1.5261029577464789
H 1.4044045070422537 -1.2610992957746463 0.41551704225352126
H -0.6795654929577464 -2.0467992957746466 -3.2793129577464786
C 1.7843245070422535 -1.2521692957746469 -2.2771629577464787
H 1.4981245070422535 -0.9384492957746469 -3.290282957746479
H 2.241984507042254 -0.38631929577464685 -1.8135029577464787
C 0.9385645070422537 2.0647807042253534 1.9815670422535212
H 1.0508945070422537 1.5807407042253532 2.9609770422535213
H 1.6053245070422537 1.5496207042253536 1.3096170422535214
C 3.9676945070422533 -1.6881692957746468 -3.314052957746479
H 4.795084507042254 -2.398849295774647 -3.4044129577464783
H 3.548404507042253 -1.4816192957746468 -4.303802957746479
H 4.307714507042253 -0.7637192957746466 -2.851282957746479
C 2.344694507042253 -3.565079295774647 -3.101282957746479
H 1.6334345070422536 -4.047909295774646 -2.4251929577464786
H 1.8561845070422536 -3.293109295774647 -4.041792957746479
H 3.1808045070422537 -4.243519295774647 -3.298122957746479
C 3.5156645070422536 -2.648489295774647 -1.1110629577464786
H 3.9311845070422535 -1.748249295774647 -0.6771029577464787
H 2.767184507042254 -3.1044092957746465 -0.45972295774647876
H 4.319224507042254 -3.371819295774647 -1.2863129577464787
C 2.963994507042253 3.381090704225353 2.401027042253521
H 3.3337945070422537 4.369820704225353 2.6912870422535216
H 3.120994507042253 2.671350704225353 3.2183370422535216
H 3.4665445070422534 3.0664207042253535 1.4881370422535212
C 1.2973745070422538 4.282440704225354 0.8488370422535213
H 1.7592145070422538 3.7367207042253527 0.02653704225352116
H 0.23311450704225378 4.4484607042253534 0.6605570422535213
H 1.7921845070422535 5.251370704225354 0.9736770422535213
C 0.7724845070422537 4.194670704225353 3.2772470422535216
H -0.2956954929577462 4.278220704225354 3.057857042253521
H 0.9298945070422537 3.612620704225354 4.190337042253521
H 1.2046345070422537 5.193640704225353 3.3918370422535213
N 2.876084507042253 -2.324759295774647 -2.4576629577464786
N 1.4527845070422536 3.504690704225353 2.1388470422535213
C -3.593905492957746 -3.637819295774647 0.8297870422535213
H -2.8952554929577463 -1.8680692957746468 1.7595270422535212
H -5.022615492957747 -1.2402792957746467 1.1579970422535213
H -4.898275492957747 -1.7933092957746464 -0.48931295774647876
H -3.883675492957746 0.07871070422535364 -1.2758929577464788
H -3.8751654929577466 -4.038529295774646 -0.1505529577464788
H -4.4603554929577465 -3.7321892957746465 1.4932570422535212
H -2.7953554929577464 -4.271929295774647 1.2313670422535212
H -5.648775492957746 1.147700704225353 0.9733970422535213
H -6.189795492957747 0.5254307042253537 -0.5943629577464788
H -5.2178854929577465 2.002970704225354 -0.5139729577464787
C 3.6710445070422537 1.0263707042253536 -0.27764295774647874
O 2.7356545070422538 1.6631507042253526 -0.7327029577464788
O 3.650814507042253 0.3883007042253537 0.7790570422535212
O 4.756604507042254 0.8696707042253538 -0.8334829577464786
O -2.0351711489701354 -1.5409307561252488 -8.47919243686125
H -1.4558689777097191 -2.18942402940115 -8.90678198980762
H -1.8007499777818121 -1.6004785281480176 -7.540862685843082
O -7.95777130206686 -9.364834627032963 2.229613951628605
H -8.346911111082136 -9.78499442176404 3.0112809605467867
H -7.295505145685042 -10.003630129089792 1.9257952738564592
O 3.5065374366586752 -6.010044455834613 -0.2242453468788297
H 3.566373800596299 -5.472648718630014 0.5798645884441023
H 3.491546915863972 -5.358041952314925 -0.9409251665963672
O 7.399350726217244 1.7912211951300516 13.480120135030324
H 7.1870598443652085 1.860012955217393 14.423076990950346
H 6.791308496089118 2.415980709563034 13.057128244084081
O -6.408830939850387 -4.025655154090226 3.534953088705655
H -6.676912999726408 -3.4288240747109504 2.8201859736537673
H -5.6728857505704955 -4.5292093903522 3.155770080359547
O 3.511042574233305 -11.451675240011017 -7.1249162571291444
H 3.6750807908730008 -11.70621942555104 -8.045386831340746
H 3.923321100687992 -12.160743944781503 -6.6089608977816
O 1.9217689898408405 6.925904510982903 2.1301204559176328
H 2.4228776044151306 7.751849100190899 2.205440100483126
H 1.1997752182302777 7.0311980058562025 2.7677725695289035
O -2.8142631106198635 4.195329339739632 -1.334063212372378
H -2.4435863609777924 4.6214897199253695 -0.5466919946264297
H -2.4341112114042724 3.304143933962838 -1.31873186040236
O 11.24312618205553 -1.4005484022995867 -9.499291285691712
H 11.510162286370328 -1.7564344389896078 -10.360107296684445
H 11.63515529535394 -2.0145740054355357 -8.860348661256623
O -3.981994308845747 -4.588438423060072 -8.372546734657051
H -3.8399554764142643 -4.871822795671228 -7.456858128011056
H -4.765611730253984 -4.020595627732615 -8.322945918532676
O -9.95414291659594 -0.7386777725787179 -4.039250164643977
H -9.281841191783146 -1.3260314736723067 -4.416070251058442
H -10.178460917526397 -0.14139842100142974 -4.768565429079033
O -14.632055457288299 0.2772522858437041 -1.2343484936353497
H -14.914304993035909 0.20283601375115 -0.3103545678338293
H -14.738761260751541 -0.6198876868153853 -1.5846564799338552
O 5.525841244816096 -0.7799390444288363 6.207568137579219
H 6.4262932890957725 -0.9617098737378194 5.899164443592138
H 5.616341109648262 -0.717309385888163 7.170298237158764
O -6.919171163508713 -6.3942110387791296 -8.592125966275312
H -6.657487362815639 -6.61253005642613 -9.499223398687333
H -6.153150967904719 -6.654022190043942 -8.05857824591164
O -11.09424278503376 -4.175968129072388 -5.711619089608663
H -11.60284542606918 -4.899985915130113 -6.106700038154488
H -11.65787665591565 -3.397920960469985 -5.837799148748278
O -9.721251258903822 6.59905682576182 -5.266281793126666
H -9.269139872800848 5.8521702861013924 -5.686666317497058
H -9.013938774093882 7.242496168393877 -5.109256936861116
O 7.66919855410704 5.853375615845762 -0.04076194346246842
H 8.394710200698645 6.403791788189093 0.29036076005219114
H 7.242506732093408 6.407321341341308 -0.7116122744096165
O 2.136002495304314 9.351120431699934 7.250679746512341
H 1.6358532509825525 9.579343823429788 6.452724751683877
H 2.9890038771687 9.793869177119934 7.126889055156074
O -9.77149702712022 -7.125654303468174 9.108620484294049
H -10.545241694699396 -6.91901070799151 9.654133977015604
H -9.780418227547543 -8.092620288334437 9.046498502721096
O -6.526729973796414 -2.4958075656051832 -8.370995982857922
H -7.1893962814175385 -3.137270599364633 -8.668260003492621
H -5.9138224742368655 -3.0229737932226683 -7.8367655927234665
O 11.224807292694392 -8.574852711774374 5.186792062405723
H 11.660960348623178 -8.487968854165448 6.047715441104998
H 11.691859852866093 -7.940325599806436 4.6227005853253775
O -9.037973232561797 -0.1383586781393218 0.620895404959841
H -9.596182603538328 0.6290151136862905 0.8171277128838126
H -9.471494754833612 -0.8686035896456672 1.0875466700885414
O -2.9398304404101627 -3.1244603183149264 12.010120734907245
H -3.1067282718063085 -3.598923651363423 11.181871366439163
H -3.538968586840156 -2.363994175947182 11.969051621150628
O -4.076879757704007 -7.736044932466199 -3.548974000368771
H -3.9450522790205538 -7.559601890854627 -4.492614146733274
H -3.585857470253975 -7.026891754442872 -3.1074303132587033
C 5.396999581753182 4.461041248389083 -6.6490851534227815
O 6.366120392145955 4.564331355048038 -5.954136043034087
O 4.427878771360409 4.35775114173013 -7.3440342638114755