146

C -5.3564454929577465 1.0091607042253532 -0.0734429577464788
C -4.079135492957747 0.16955070422535368 -0.19788295774647868
C -4.333545492957747 -1.2789292957746463 0.3017270422535212
C -3.1403854929577464 -2.1745492957746464 0.7330270422535212
C -2.905235492957746 0.902300704225353 0.41966704225352136
C -2.7423854929577463 1.056130704225354 1.8024770422535212
C -1.8861754929577463 1.3499307042253532 -0.4326129577464788
C -1.5304554929577463 1.5279207042253526 2.3254170422535214
H -3.5237954929577464 0.7301007042253529 2.484817042253521
C -0.6776454929577462 1.8010507042253527 0.08546704225352131
H -1.9759254929577463 1.2426607042253535 -1.5115229577464788
C -0.4680254929577463 1.8513207042253539 1.4698070422535212
H -1.3950654929577464 1.5446707042253527 3.404047042253521
H 0.1461845070422536 1.9972507042253538 -0.6030529577464789
C -1.8679654929577463 -2.0866092957746467 -0.08765295774647863
C -0.6628654929577462 -1.814079295774647 0.5787970422535212
C -1.8438954929577462 -2.213429295774647 -1.4808029577464787
C 0.5129345070422537 -1.5763292957746469 -0.13022295774647863
H -0.6401854929577462 -1.7032692957746463 1.6609470422535213
C -0.6547954929577462 -1.9962392957746466 -2.1933129577464787
H -2.7578654929577464 -2.4351492957746466 -2.026182957746479
C 0.5308845070422537 -1.645769295774647 -1.5261029577464789
H 1.4044045070422537 -1.2610992957746463 0.41551704225352126
H -0.6795654929577464 -2.0467992957746466 -3.2793129577464786
C 1.7843245070422535 -1.2521692957746469 -2.2771629577464787
H 1.4981245070422535 -0.9384492957746469 -3.290282957746479
H 2.241984507042254 -0.38631929577464685 -1.8135029577464787
C 0.9385645070422537 2.0647807042253534 1.9815670422535212
H 1.0508945070422537 1.5807407042253532 2.9609770422535213
H 1.6053245070422537 1.5496207042253536 1.3096170422535214
C 3.9676945070422533 -1.6881692957746468 -3.314052957746479
H 4.795084507042254 -2.398849295774647 -3.4044129577464783
H 3.548404507042253 -1.4816192957746468 -4.303802957746479
H 4.307714507042253 -0.7637192957746466 -2.851282957746479
C 2.344694507042253 -3.565079295774647 -3.101282957746479
H 1.6334345070422536 -4.047909295774646 -2.4251929577464786
H 1.8561845070422536 -3.293109295774647 -4.041792957746479
H 3.1808045070422537 -4.243519295774647 -3.298122957746479
C 3.5156645070422536 -2.648489295774647 -1.1110629577464786
H 3.9311845070422535 -1.748249295774647 -0.6771029577464787
H 2.767184507042254 -3.1044092957746465 -0.45972295774647876
H 4.319224507042254 -3.371819295774647 -1.2863129577464787
C 2.963994507042253 3.381090704225353 2.401027042253521
H 3.3337945070422537 4.369820704225353 2.6912870422535216
H 3.120994507042253 2.671350704225353 3.2183370422535216
H 3.4665445070422534 3.0664207042253535 1.4881370422535212
C 1.2973745070422538 4.282440704225354 0.8488370422535213
H 1.7592145070422538 3.7367207042253527 0.02653704225352116
H 0.23311450704225378 4.4484607042253534 0.6605570422535213
H 1.7921845070422535 5.251370704225354 0.9736770422535213
C 0.7724845070422537 4.194670704225353 3.2772470422535216
H -0.2956954929577462 4.278220704225354 3.057857042253521
H 0.9298945070422537 3.612620704225354 4.190337042253521
H 1.2046345070422537 5.193640704225353 3.3918370422535213
N 2.876084507042253 -2.324759295774647 -2.4576629577464786
N 1.4527845070422536 3.504690704225353 2.1388470422535213
C -3.593905492957746 -3.637819295774647 0.8297870422535213
H -2.8952554929577463 -1.8680692957746468 1.7595270422535212
H -5.022615492957747 -1.2402792957746467 1.1579970422535213
H -4.898275492957747 -1.7933092957746464 -0.48931295774647876
H -3.883675492957746 0.07871070422535364 -1.2758929577464788
H -3.8751654929577466 -4.038529295774646 -0.1505529577464788
H -4.4603554929577465 -3.7321892957746465 1.4932570422535212
H -2.7953554929577464 -4.271929295774647 1.2313670422535212
H -5.648775492957746 1.147700704225353 0.9733970422535213
H -6.189795492957747 0.5254307042253537 -0.5943629577464788
H -5.2178854929577465 2.002970704225354 -0.5139729577464787
C 3.6710445070422537 1.0263707042253536 -0.27764295774647874
O 2.7356545070422538 1.6631507042253526 -0.7327029577464788
O 3.650814507042253 0.3883007042253537 0.7790570422535212
O 4.756604507042254 0.8696707042253538 -0.8334829577464786
O 9.758503070527585 -2.8031978203758197 4.916775371227445
H 9.68563468763907 -2.84404706127974 3.9513796517461595
H 8.839298978890987 -2.830108062882768 5.222228511769083
O 8.779257528512886 1.8459404346875905 10.225577288934257
H 7.949902741424333 1.4904368779281976 10.578784331849208
H 9.393248444281134 1.7945964369379421 10.973468252610887
O 1.5883908801267157 -6.3114067964612826 5.248931265191933
H 1.6527880589683677 -7.257465796885727 5.049450118280412
H 2.284880849998408 -6.1628164096494835 5.906034425369427
O -1.7221062717265827 4.47060786752716 -13.812563640099249
H -1.041483645292888 3.794730494544149 -13.675050099034799
H -2.5547229323256673 3.9983696956459767 -13.661889986758172
O 0.8053531257293098 -2.431306429758278 -7.169784666367639
H 1.3914253616876975 -3.175263815733853 -6.964811255918562
H -0.06602611754149645 -2.7300554785335116 -6.869103498762001
O -4.666647749463785 -0.8540063448626682 10.464867433947083
H -4.479981063664672 -0.6249169916535482 11.387711393432653
H -4.113885279278919 -1.632745667504857 10.300609517164023
O 1.824602207232184 6.814459387503742 -3.348286116000779
H 2.573989749864677 6.223979424050174 -3.178819067265319
H 1.270795395966097 6.722385028356292 -2.558487234966579
O 0.11033365371864834 -3.911958063345049 11.481996460641586
H 0.3005984520444078 -3.016384528475902 11.164640655495312
H 0.6952679905122716 -4.47639200952451 10.954523156729353
O 2.7070438933755114 2.6529978944597197 -2.5045239266863306
H 3.117626691417389 1.9792740253566736 -3.067094163237222
H 1.8102652345627614 2.3179285820815974 -2.354595486087298
O 4.786115458085328 -0.4208031516794044 -17.490820788439162
H 4.278886118813482 -0.6114806259239227 -18.294143796386514
H 5.272944759331471 -1.2412698091228522 -17.321133900991224
O -5.289692120859942 1.4820032029261083 3.2119764121951557
H -4.914812539982887 0.6124169730687159 3.0064224154355417
H -4.92518873442583 1.6937123679244122 4.084489137050092
O -1.005634707517403 -8.332182864512465 3.68887215773685
H -1.709514602295311 -8.324950395400434 3.0229381204493833
H -1.479116566483849 -8.427980263514181 4.528871998138135
O -8.734780131286303 8.335954631148507 -4.061662981815787
H -8.684344053275568 8.209620869307422 -3.1022551751173135
H -8.410548271475818 7.4983791818426635 -4.425397791950793
O 4.553094292493052 -11.606356606332811 3.6103493608156345
H 5.181546904938857 -11.827982920793575 4.313838129417225
H 4.932096657252854 -12.018551275173488 2.8195177056665752
O -0.9757241385143298 1.9046158286360657 -13.835245861713275
H -1.3057999508410756 1.385932253962338 -14.58423495668097
H -1.7113799566835435 2.496841963905821 -13.618357258515145
O -3.576550363594328 3.2858097402902926 -1.4248568109576196
H -3.6176251832329935 3.0693774572191566 -2.3684866551954267
H -3.758653044567705 2.4427491030410784 -0.9832129274912491
O 11.076795918465768 6.066187711403527 1.2176529488548589
H 11.775413555362 5.445858173194978 1.4747366285070163
H 10.263898009463318 5.651219198285212 1.5431680283209532
O -3.5001250902323786 -2.783452502109274 -9.311851071887679
H -3.7745683452601315 -1.9708887525280314 -8.86086503048923
H -3.755967312700869 -2.636691721926514 -10.234872184811175
O 3.589817227167652 2.940202124612913 9.799097991933015
H 4.277892350192342 3.4291632323772028 10.27495197906402
H 3.0631169552826067 3.632704413797908 9.372495897036892
O 4.9274553356948765 4.486064284346919 6.132737155237243
H 5.433953253443599 3.6631250217501226 6.204835603853346
H 4.745078627474681 4.730009328746846 7.052623830818252
O -5.3233330773450165 3.4792460842721176 -4.148027225405721
H -5.062069549936076 2.5926483068967037 -3.8570751549562816
H -5.808131063226595 3.321757758732092 -4.9721208393257434
O -4.2041349480025305 0.20148616995265867 -7.618638486936789
H -3.3111367266978062 0.1491164522659636 -7.246108023328755
H -4.056200358633157 0.2522731114369443 -8.574932368618978
O 5.5498091763854145 3.0099483497571162 3.495246408378325
H 6.133983985692899 3.5425267589359795 4.055663562957909
H 6.124599315809112 2.304850168278068 3.161457860947136
O 2.3592007288268926 -13.474805602747562 -6.111030620608247
H 1.4825377055945674 -13.070703257642352 -6.195473472748793
H 2.9003584372645737 -12.997160620038802 -6.757533172336874
C -0.5379404185325722 -0.1818585257126083 -7.167994127898504
O -0.44058884507444346 -0.1960007428894029 -5.975039423754818
O -0.635291991990701 -0.16771630853581365 -8.360948832042192