146

C -5.3564454929577465 1.0091607042253532 -0.0734429577464788
C -4.079135492957747 0.16955070422535368 -0.19788295774647868
C -4.333545492957747 -1.2789292957746463 0.3017270422535212
C -3.1403854929577464 -2.1745492957746464 0.7330270422535212
C -2.905235492957746 0.902300704225353 0.41966704225352136
C -2.7423854929577463 1.056130704225354 1.8024770422535212
C -1.8861754929577463 1.3499307042253532 -0.4326129577464788
C -1.5304554929577463 1.5279207042253526 2.3254170422535214
H -3.5237954929577464 0.7301007042253529 2.484817042253521
C -0.6776454929577462 1.8010507042253527 0.08546704225352131
H -1.9759254929577463 1.2426607042253535 -1.5115229577464788
C -0.4680254929577463 1.8513207042253539 1.4698070422535212
H -1.3950654929577464 1.5446707042253527 3.404047042253521
H 0.1461845070422536 1.9972507042253538 -0.6030529577464789
C -1.8679654929577463 -2.0866092957746467 -0.08765295774647863
C -0.6628654929577462 -1.814079295774647 0.5787970422535212
C -1.8438954929577462 -2.213429295774647 -1.4808029577464787
C 0.5129345070422537 -1.5763292957746469 -0.13022295774647863
H -0.6401854929577462 -1.7032692957746463 1.6609470422535213
C -0.6547954929577462 -1.9962392957746466 -2.1933129577464787
H -2.7578654929577464 -2.4351492957746466 -2.026182957746479
C 0.5308845070422537 -1.645769295774647 -1.5261029577464789
H 1.4044045070422537 -1.2610992957746463 0.41551704225352126
H -0.6795654929577464 -2.0467992957746466 -3.2793129577464786
C 1.7843245070422535 -1.2521692957746469 -2.2771629577464787
H 1.4981245070422535 -0.9384492957746469 -3.290282957746479
H 2.241984507042254 -0.38631929577464685 -1.8135029577464787
C 0.9385645070422537 2.0647807042253534 1.9815670422535212
H 1.0508945070422537 1.5807407042253532 2.9609770422535213
H 1.6053245070422537 1.5496207042253536 1.3096170422535214
C 3.9676945070422533 -1.6881692957746468 -3.314052957746479
H 4.795084507042254 -2.398849295774647 -3.4044129577464783
H 3.548404507042253 -1.4816192957746468 -4.303802957746479
H 4.307714507042253 -0.7637192957746466 -2.851282957746479
C 2.344694507042253 -3.565079295774647 -3.101282957746479
H 1.6334345070422536 -4.047909295774646 -2.4251929577464786
H 1.8561845070422536 -3.293109295774647 -4.041792957746479
H 3.1808045070422537 -4.243519295774647 -3.298122957746479
C 3.5156645070422536 -2.648489295774647 -1.1110629577464786
H 3.9311845070422535 -1.748249295774647 -0.6771029577464787
H 2.767184507042254 -3.1044092957746465 -0.45972295774647876
H 4.319224507042254 -3.371819295774647 -1.2863129577464787
C 2.963994507042253 3.381090704225353 2.401027042253521
H 3.3337945070422537 4.369820704225353 2.6912870422535216
H 3.120994507042253 2.671350704225353 3.2183370422535216
H 3.4665445070422534 3.0664207042253535 1.4881370422535212
C 1.2973745070422538 4.282440704225354 0.8488370422535213
H 1.7592145070422538 3.7367207042253527 0.02653704225352116
H 0.23311450704225378 4.4484607042253534 0.6605570422535213
H 1.7921845070422535 5.251370704225354 0.9736770422535213
C 0.7724845070422537 4.194670704225353 3.2772470422535216
H -0.2956954929577462 4.278220704225354 3.057857042253521
H 0.9298945070422537 3.612620704225354 4.190337042253521
H 1.2046345070422537 5.193640704225353 3.3918370422535213
N 2.876084507042253 -2.324759295774647 -2.4576629577464786
N 1.4527845070422536 3.504690704225353 2.1388470422535213
C -3.593905492957746 -3.637819295774647 0.8297870422535213
H -2.8952554929577463 -1.8680692957746468 1.7595270422535212
H -5.022615492957747 -1.2402792957746467 1.1579970422535213
H -4.898275492957747 -1.7933092957746464 -0.48931295774647876
H -3.883675492957746 0.07871070422535364 -1.2758929577464788
H -3.8751654929577466 -4.038529295774646 -0.1505529577464788
H -4.4603554929577465 -3.7321892957746465 1.4932570422535212
H -2.7953554929577464 -4.271929295774647 1.2313670422535212
H -5.648775492957746 1.147700704225353 0.9733970422535213
H -6.189795492957747 0.5254307042253537 -0.5943629577464788
H -5.2178854929577465 2.002970704225354 -0.5139729577464787
C 3.6710445070422537 1.0263707042253536 -0.27764295774647874
O 2.7356545070422538 1.6631507042253526 -0.7327029577464788
O 3.650814507042253 0.3883007042253537 0.7790570422535212
O 4.756604507042254 0.8696707042253538 -0.8334829577464786
O -8.984582667503325 1.6210991508946901 -2.288410865448991
H -8.335826482776241 2.3012651747974497 -2.0529178727577655
H -8.453286282387907 0.8177707548738047 -2.3949452899783603
O -10.20981880241279 -2.686020870164153 4.9572606015961735
H -10.115614085124006 -3.078342022291711 4.076251554120583
H -9.378803231612888 -2.9091254679877547 5.4029055318019195
O 5.114037006921777 -0.016018213570565987 -10.957346786245889
H 5.663608322949218 0.26275538983580216 -10.20953397307424
H 5.669766073273156 0.15451932109327116 -11.732617125149037
O -0.21714507572463937 10.040021222624498 2.2632933131048967
H -0.7754966505579639 10.658719129952452 2.7576856423831315
H -0.20857439145244072 9.24200210117122 2.8128876812220063
O -9.250214986395074 13.753963458322634 2.178032596433712
H -10.126571153710334 14.063960820976433 1.9044108501192007
H -8.637334465099602 14.324962104877192 1.6908981626790733
O 8.515700162117934 7.902166202089158 7.684940152526237
H 8.980547699317142 8.010385200125793 8.52825075516549
H 7.669725464762771 7.500507570327005 7.933856000285661
O -5.615924839615879 5.195265811926736 -6.220924560392731
H -5.086299507294148 5.630793542696565 -6.905599636610334
H -5.317987201263354 4.2735337197441785 -6.245522491071659
O 2.744816533968291 8.0521381771866 3.662644709872414
H 2.9145680588882614 7.627696223330808 4.51704555519879
H 3.590454902030397 8.467081881340924 3.4353136360088805
O -0.946159007852232 6.387137697607233 6.287259325459309
H -0.6457010694914211 5.537798533569836 5.930446533356464
H -1.8535399266439585 6.471558833533349 5.957873709013136
O 3.7924257930380247 2.8589365542901897 -7.531398260507052
H 3.5792095674840865 2.949926456043333 -6.590533213946448
H 4.162475786498285 3.721563975218292 -7.7720201200771895
O -4.361827734435243 -3.9437343106319656 -5.749658611611788
H -3.539165926477602 -3.477354180951258 -5.538271570223559
H -4.2482213768028565 -4.211484963327786 -6.673977348729274
O 2.555865827490079 5.844227130770896 7.616169771854007
H 2.2539608884376245 5.498106643257044 8.469411456723487
H 1.7490687568764938 6.18872012622689 7.204629971553847
O -6.609458750990312 -4.018748913356376 1.7187149768107974
H -6.723614813163665 -3.954421701610544 2.6788179713890257
H -7.507410191947365 -3.917302225221656 1.3689240057300005
O 2.249786368471806 -3.0860584484721056 7.8320165026095125
H 2.196450683412069 -3.632860735330653 8.630220687442863
H 3.200598268282109 -3.0181525839499255 7.657926097811842
O 2.4743227815917628 0.7401906570022319 -3.7032380102964293
H 2.520018468138657 1.0706993808706315 -2.7934890094297664
H 2.8217737707084987 -0.16230816035970186 -3.6421181352792797
O -6.226742178137601 4.0270353236786525 -11.564949456074379
H -6.419725054736223 3.4981991284921374 -12.353655513424245
H -6.713502617537072 4.852001260277598 -11.711432978653056
O -9.671385659378952 4.4529800087324745 6.95834578345289
H -9.483452170876477 5.040014639323676 6.2106568753594615
H -8.803080206670572 4.097986245809458 7.20121820548275
O -4.779256949960561 -1.0560553367093268 10.203281130442091
H -4.314319759184402 -1.905866279197204 10.228223615503532
H -4.123680588756346 -0.4209508496769807 10.528586939614971
O 1.890107175197933 -4.2388817950312 11.994148082069614
H 1.6658074825383649 -4.004604160224602 12.907258696728238
H 2.572160295167698 -3.5959597606927023 11.748349905506897
O -9.548824842393254 -2.0330953517466614 2.7310642420339617
H -8.74968437266596 -1.5532363072169602 2.995785159090178
H -9.938756562570058 -1.47567467178377 2.0409936779249955
O -1.346119297609107 -8.942319164000182 -6.826231143017692
H -0.4276172220898663 -8.90410605513027 -7.132598655129118
H -1.623856057586815 -8.01426889222847 -6.802844618659843
O 8.89643279320886 2.080228455718837 4.978434940472026
H 8.818364495012204 1.3119767342243456 4.393061563782045
H 8.082763517093223 2.057550420018579 5.504162969116338
O -6.35297547271511 5.193315306490666 -0.49377106464967047
H -6.184883387693837 5.470783203058437 -1.4068559315856304
H -5.697257657500712 5.683752366932147 0.0243675083749344
O 5.328562640945223 -4.9879729814442975 -8.936706283978792
H 5.314898667605728 -5.696828165792708 -9.597240144091172
H 4.749236432955492 -5.3138649421643995 -8.231626487803746
C 3.6280171329101263 6.426117105556244 -2.759347068442551
O 4.008932058573602 6.389786724454792 -1.6251503570578762
O 3.247102207246651 6.462447486657697 -3.8935437798272265