146

C -5.3564454929577465 1.0091607042253532 -0.0734429577464788
C -4.079135492957747 0.16955070422535368 -0.19788295774647868
C -4.333545492957747 -1.2789292957746463 0.3017270422535212
C -3.1403854929577464 -2.1745492957746464 0.7330270422535212
C -2.905235492957746 0.902300704225353 0.41966704225352136
C -2.7423854929577463 1.056130704225354 1.8024770422535212
C -1.8861754929577463 1.3499307042253532 -0.4326129577464788
C -1.5304554929577463 1.5279207042253526 2.3254170422535214
H -3.5237954929577464 0.7301007042253529 2.484817042253521
C -0.6776454929577462 1.8010507042253527 0.08546704225352131
H -1.9759254929577463 1.2426607042253535 -1.5115229577464788
C -0.4680254929577463 1.8513207042253539 1.4698070422535212
H -1.3950654929577464 1.5446707042253527 3.404047042253521
H 0.1461845070422536 1.9972507042253538 -0.6030529577464789
C -1.8679654929577463 -2.0866092957746467 -0.08765295774647863
C -0.6628654929577462 -1.814079295774647 0.5787970422535212
C -1.8438954929577462 -2.213429295774647 -1.4808029577464787
C 0.5129345070422537 -1.5763292957746469 -0.13022295774647863
H -0.6401854929577462 -1.7032692957746463 1.6609470422535213
C -0.6547954929577462 -1.9962392957746466 -2.1933129577464787
H -2.7578654929577464 -2.4351492957746466 -2.026182957746479
C 0.5308845070422537 -1.645769295774647 -1.5261029577464789
H 1.4044045070422537 -1.2610992957746463 0.41551704225352126
H -0.6795654929577464 -2.0467992957746466 -3.2793129577464786
C 1.7843245070422535 -1.2521692957746469 -2.2771629577464787
H 1.4981245070422535 -0.9384492957746469 -3.290282957746479
H 2.241984507042254 -0.38631929577464685 -1.8135029577464787
C 0.9385645070422537 2.0647807042253534 1.9815670422535212
H 1.0508945070422537 1.5807407042253532 2.9609770422535213
H 1.6053245070422537 1.5496207042253536 1.3096170422535214
C 3.9676945070422533 -1.6881692957746468 -3.314052957746479
H 4.795084507042254 -2.398849295774647 -3.4044129577464783
H 3.548404507042253 -1.4816192957746468 -4.303802957746479
H 4.307714507042253 -0.7637192957746466 -2.851282957746479
C 2.344694507042253 -3.565079295774647 -3.101282957746479
H 1.6334345070422536 -4.047909295774646 -2.4251929577464786
H 1.8561845070422536 -3.293109295774647 -4.041792957746479
H 3.1808045070422537 -4.243519295774647 -3.298122957746479
C 3.5156645070422536 -2.648489295774647 -1.1110629577464786
H 3.9311845070422535 -1.748249295774647 -0.6771029577464787
H 2.767184507042254 -3.1044092957746465 -0.45972295774647876
H 4.319224507042254 -3.371819295774647 -1.2863129577464787
C 2.963994507042253 3.381090704225353 2.401027042253521
H 3.3337945070422537 4.369820704225353 2.6912870422535216
H 3.120994507042253 2.671350704225353 3.2183370422535216
H 3.4665445070422534 3.0664207042253535 1.4881370422535212
C 1.2973745070422538 4.282440704225354 0.8488370422535213
H 1.7592145070422538 3.7367207042253527 0.02653704225352116
H 0.23311450704225378 4.4484607042253534 0.6605570422535213
H 1.7921845070422535 5.251370704225354 0.9736770422535213
C 0.7724845070422537 4.194670704225353 3.2772470422535216
H -0.2956954929577462 4.278220704225354 3.057857042253521
H 0.9298945070422537 3.612620704225354 4.190337042253521
H 1.2046345070422537 5.193640704225353 3.3918370422535213
N 2.876084507042253 -2.324759295774647 -2.4576629577464786
N 1.4527845070422536 3.504690704225353 2.1388470422535213
C -3.593905492957746 -3.637819295774647 0.8297870422535213
H -2.8952554929577463 -1.8680692957746468 1.7595270422535212
H -5.022615492957747 -1.2402792957746467 1.1579970422535213
H -4.898275492957747 -1.7933092957746464 -0.48931295774647876
H -3.883675492957746 0.07871070422535364 -1.2758929577464788
H -3.8751654929577466 -4.038529295774646 -0.1505529577464788
H -4.4603554929577465 -3.7321892957746465 1.4932570422535212
H -2.7953554929577464 -4.271929295774647 1.2313670422535212
H -5.648775492957746 1.147700704225353 0.9733970422535213
H -6.189795492957747 0.5254307042253537 -0.5943629577464788
H -5.2178854929577465 2.002970704225354 -0.5139729577464787
C 3.6710445070422537 1.0263707042253536 -0.27764295774647874
O 2.7356545070422538 1.6631507042253526 -0.7327029577464788
O 3.650814507042253 0.3883007042253537 0.7790570422535212
O 4.756604507042254 0.8696707042253538 -0.8334829577464786
O -6.427252327613845 -2.8891390757278064 -11.19877811170571
H -6.259306580587619 -3.046714194430475 -12.140017541883624
H -7.202300540341718 -2.307560143173969 -11.193471751666173
O -4.017473357956971 -2.256375600064542 -6.192402852435293
H -3.3243409876420538 -2.082277658396104 -6.846791712997909
H -3.8113230447892317 -3.1443009488243283 -5.863689348437277
O -6.404281611148505 0.01331937671825223 -3.8637289488810156
H -5.927744666536313 0.7833396692189856 -4.208618273819847
H -6.948997488688806 -0.2784320561911986 -4.61013879504516
O -1.5918432578647421 3.8636661421395413 -12.32516645730905
H -2.3375093819896744 4.340906037045503 -12.719109944300076
H -1.6207755786178282 2.9929793049111346 -12.749465050982224
O 0.8947293596618571 -0.6987265774638067 -10.31145841030929
H 0.005403662364295236 -0.7662640058089352 -10.690280079170424
H 1.3924937637687949 -1.40123553379805 -10.756063525635506
O 9.458174103861452 6.052381751850892 -9.730296248772369
H 9.570968692974821 6.687476172339531 -10.453414368190595
H 10.239449348230151 5.482834444913602 -9.795001750834517
O 3.5275004749807195 3.105193301792458 8.949890955597002
H 3.006032844555467 3.7877596157152738 8.501402277460649
H 3.042052773148335 2.9426209595107484 9.772613695413213
O -7.884023988972813 2.4232179031031227 -4.2257203567489325
H -8.597592838398914 3.072215652015039 -4.318396005848243
H -7.9602258163555195 2.1209855988441317 -3.308217844454914
O 5.595604988130328 -12.055919649622327 5.4460008101572654
H 6.148046529723002 -11.40101617996007 4.993367243740625
H 6.23432090676299 -12.638363455299924 5.883908486286641
O 4.318066146689705 -14.183906058187416 -0.5164158620165034
H 4.995823683152474 -14.50530477429772 0.09702928137495714
H 4.521211768141194 -13.2417913114268 -0.6169822814678705
O 0.15973790219111272 -3.025204316092214 -14.097753383285966
H -0.479978374973433 -2.7337264391073237 -14.764664988267551
H 0.5461972152758425 -2.200143073216352 -13.767775976280253
O 7.683137011961591 3.4293647076220193 -2.097452969298712
H 7.862778724307898 2.7303810847809666 -2.744073497186039
H 8.475407843768034 3.9864014326997927 -2.128741310311855
O 2.6705746598893603 10.86624369695804 -7.588460540741681
H 2.7635351317388372 11.011095031963535 -6.634865344486662
H 1.994918946380289 10.174891408064635 -7.655418092551757
O -7.835435108626806 8.461635092699789 -6.051080640345073
H -7.4232609224931005 8.76314014021721 -6.874594151774325
H -7.085498162995116 8.304053470784838 -5.458016938613744
O -0.3648313869888917 -6.972258982810383 -3.617976288074903
H -0.4627570024029355 -6.025015775096171 -3.797164000223563
H -1.2168564933919472 -7.22696744526453 -3.2330883024049086
O 6.334960926282118 -7.765046333719608 2.997134879100458
H 6.266849407630851 -7.875823513556441 3.957372659212455
H 6.9651395659052 -8.449649058760377 2.7266613400443127
O -8.269225676195642 2.311534603070841 5.15345271944074
H -8.45865331170705 2.4043453268946036 6.09921732934527
H -8.254113884510684 1.3532242517232764 5.010712225704109
O -7.956755859798307 -2.5267881754095436 4.209183902688214
H -8.720622332390029 -2.9924144498535674 3.836802993540525
H -8.06108727255506 -1.616449092813832 3.893970236564778
O 8.836871829955184 -3.4207590272195914 -7.0235539209407944
H 8.666614836582132 -4.37364005627554 -6.978858758195286
H 8.63200846617942 -3.1042666618388552 -6.130903077028021
O -3.824846964501222 -4.4215979920786 -1.6300100687137813
H -3.3809157815083646 -4.784546041969564 -2.411138211048257
H -4.687623234591752 -4.862681181104017 -1.6250429339419976
O -2.013680355180949 -9.704511902951758 3.0180727033498274
H -1.7752081065426686 -9.471850066686166 2.1081458857018767
H -2.0144305791512735 -10.673511239510162 3.0193639095174065
O -5.837935093713116 -7.6291394446246095 -1.289743442640931
H -5.48925518453775 -7.15198342498686 -2.0576703992982157
H -5.583878941444798 -8.550174576263826 -1.4513345998276677
O -2.8340034930106826 9.699673335669868 -4.439258094522684
H -3.57042172280116 9.20222326990786 -4.052995256799926
H -3.2192553352258373 10.56399554589659 -4.6478008462035305
O -2.719184072074886 8.228040732267244 8.424031987415864
H -2.7663618038965847 8.891363380098712 9.12883315327331
H -2.11739323888646 8.620074173634409 7.773555609489504
C 11.536089594953246 -5.798402191131661 7.8610577628022025
O 10.362566343301637 -5.596942887487574 7.983840433030016
O 12.709612846604857 -5.9998614947757485 7.738275092574389