146

C -5.3564454929577465 1.0091607042253532 -0.0734429577464788
C -4.079135492957747 0.16955070422535368 -0.19788295774647868
C -4.333545492957747 -1.2789292957746463 0.3017270422535212
C -3.1403854929577464 -2.1745492957746464 0.7330270422535212
C -2.905235492957746 0.902300704225353 0.41966704225352136
C -2.7423854929577463 1.056130704225354 1.8024770422535212
C -1.8861754929577463 1.3499307042253532 -0.4326129577464788
C -1.5304554929577463 1.5279207042253526 2.3254170422535214
H -3.5237954929577464 0.7301007042253529 2.484817042253521
C -0.6776454929577462 1.8010507042253527 0.08546704225352131
H -1.9759254929577463 1.2426607042253535 -1.5115229577464788
C -0.4680254929577463 1.8513207042253539 1.4698070422535212
H -1.3950654929577464 1.5446707042253527 3.404047042253521
H 0.1461845070422536 1.9972507042253538 -0.6030529577464789
C -1.8679654929577463 -2.0866092957746467 -0.08765295774647863
C -0.6628654929577462 -1.814079295774647 0.5787970422535212
C -1.8438954929577462 -2.213429295774647 -1.4808029577464787
C 0.5129345070422537 -1.5763292957746469 -0.13022295774647863
H -0.6401854929577462 -1.7032692957746463 1.6609470422535213
C -0.6547954929577462 -1.9962392957746466 -2.1933129577464787
H -2.7578654929577464 -2.4351492957746466 -2.026182957746479
C 0.5308845070422537 -1.645769295774647 -1.5261029577464789
H 1.4044045070422537 -1.2610992957746463 0.41551704225352126
H -0.6795654929577464 -2.0467992957746466 -3.2793129577464786
C 1.7843245070422535 -1.2521692957746469 -2.2771629577464787
H 1.4981245070422535 -0.9384492957746469 -3.290282957746479
H 2.241984507042254 -0.38631929577464685 -1.8135029577464787
C 0.9385645070422537 2.0647807042253534 1.9815670422535212
H 1.0508945070422537 1.5807407042253532 2.9609770422535213
H 1.6053245070422537 1.5496207042253536 1.3096170422535214
C 3.9676945070422533 -1.6881692957746468 -3.314052957746479
H 4.795084507042254 -2.398849295774647 -3.4044129577464783
H 3.548404507042253 -1.4816192957746468 -4.303802957746479
H 4.307714507042253 -0.7637192957746466 -2.851282957746479
C 2.344694507042253 -3.565079295774647 -3.101282957746479
H 1.6334345070422536 -4.047909295774646 -2.4251929577464786
H 1.8561845070422536 -3.293109295774647 -4.041792957746479
H 3.1808045070422537 -4.243519295774647 -3.298122957746479
C 3.5156645070422536 -2.648489295774647 -1.1110629577464786
H 3.9311845070422535 -1.748249295774647 -0.6771029577464787
H 2.767184507042254 -3.1044092957746465 -0.45972295774647876
H 4.319224507042254 -3.371819295774647 -1.2863129577464787
C 2.963994507042253 3.381090704225353 2.401027042253521
H 3.3337945070422537 4.369820704225353 2.6912870422535216
H 3.120994507042253 2.671350704225353 3.2183370422535216
H 3.4665445070422534 3.0664207042253535 1.4881370422535212
C 1.2973745070422538 4.282440704225354 0.8488370422535213
H 1.7592145070422538 3.7367207042253527 0.02653704225352116
H 0.23311450704225378 4.4484607042253534 0.6605570422535213
H 1.7921845070422535 5.251370704225354 0.9736770422535213
C 0.7724845070422537 4.194670704225353 3.2772470422535216
H -0.2956954929577462 4.278220704225354 3.057857042253521
H 0.9298945070422537 3.612620704225354 4.190337042253521
H 1.2046345070422537 5.193640704225353 3.3918370422535213
N 2.876084507042253 -2.324759295774647 -2.4576629577464786
N 1.4527845070422536 3.504690704225353 2.1388470422535213
C -3.593905492957746 -3.637819295774647 0.8297870422535213
H -2.8952554929577463 -1.8680692957746468 1.7595270422535212
H -5.022615492957747 -1.2402792957746467 1.1579970422535213
H -4.898275492957747 -1.7933092957746464 -0.48931295774647876
H -3.883675492957746 0.07871070422535364 -1.2758929577464788
H -3.8751654929577466 -4.038529295774646 -0.1505529577464788
H -4.4603554929577465 -3.7321892957746465 1.4932570422535212
H -2.7953554929577464 -4.271929295774647 1.2313670422535212
H -5.648775492957746 1.147700704225353 0.9733970422535213
H -6.189795492957747 0.5254307042253537 -0.5943629577464788
H -5.2178854929577465 2.002970704225354 -0.5139729577464787
C 3.6710445070422537 1.0263707042253536 -0.27764295774647874
O 2.7356545070422538 1.6631507042253526 -0.7327029577464788
O 3.650814507042253 0.3883007042253537 0.7790570422535212
O 4.756604507042254 0.8696707042253538 -0.8334829577464786
O 0.8170802782581044 5.054460747396993 -7.287138483516458
H 1.6940010006665138 4.984736887439734 -6.880793818406437
H 1.0006999731268862 5.354257906742353 -8.190115457311885
O -7.568125243116652 3.5446583008492345 5.239234538839578
H -7.333575649227519 4.4366773241576025 5.536313496294376
H -7.443178201313765 2.9950409846441093 6.027441990448722
O -6.498573602906709 2.4591183990970205 -4.601374218134163
H -5.793707126017946 2.84394553239399 -4.059120878691371
H -6.2205212517137625 1.539616583419007 -4.728516835933668
O 4.752792817563311 1.4121325888038363 3.9339678722171993
H 4.857324780861948 1.2535974429538466 4.884182076004564
H 5.659847668501747 1.3990652297105042 3.5933174857278
O -1.3918569542986774 1.0451735476927135 -11.497826355496175
H -1.5098099419888769 0.4627858609285198 -12.26325370796041
H -1.8053043234200052 0.559550293733488 -10.768310576036466
O -6.100171429275905 -7.287531393676882 -8.251643261658884
H -6.429035641541331 -7.183833040036449 -7.346070327962595
H -5.156230018246801 -7.474597431912894 -8.137876596140957
O 5.148576012085589 4.687554085542242 -6.060398549865118
H 5.165710861812643 3.8533623866082154 -5.567653216803105
H 5.719726059475415 5.276055041899046 -5.5442433483668445
O 1.0770155123663052 -7.046506763487575 -7.822389059337917
H 1.5392741572863702 -7.0345594324521326 -6.970836616221351
H 0.7801169963119856 -6.131691101901834 -7.940395503154283
O -7.401018964561768 -5.013228768697667 -3.9492811169403654
H -7.479134144402045 -4.1865940525061545 -3.449740906781563
H -8.288380104654951 -5.399707556770117 -3.902523254258535
O -1.2454198308412268 -0.42718544555279425 8.274428513099716
H -1.1415042403927305 -0.5962193573032817 7.325957931774144
H -1.4781915190808248 0.512306928653115 8.320616869457469
O 10.45344621513534 -4.0430433424347605 -2.740099721070356
H 9.588898690671535 -4.44692835416264 -2.9086281523366404
H 10.617874382346066 -4.2246582707278915 -1.8025810066177845
O 6.827680067135934 7.296191368978802 -8.993965676036424
H 7.619794027240342 7.850705926361059 -9.057498634088727
H 6.584452415185272 7.1288814786619294 -9.916901022758351
O -14.894635657529776 5.323855212426892 -0.9803918692514051
H -15.625096324652667 5.06184642674184 -1.5606900399449106
H -14.193335518710779 4.687202082138652 -1.1848737786875203
O -10.734136657858844 1.7938449508741323 7.792271785409583
H -11.546658586163865 1.310261693675991 8.004221558424616
H -10.03706296059661 1.284450544004291 8.232234901062347
O 7.816107463265668 2.0266380015516834 7.419835575348875
H 7.720188377037938 1.6372294291371032 8.301951128735888
H 7.823696734675329 2.9814222977832374 7.585036346924211
O 3.9225163470451836 7.398923313933171 2.5330686675271905
H 4.014202337517771 8.12964776364201 1.9033045730848541
H 4.299307585852259 7.749029009535402 3.3542972036638172
O 3.6885550926680293 6.825687745373976 -12.094984958639767
H 3.526448755297367 6.936974294184632 -13.043828568692595
H 4.461104608084952 6.242044032647803 -12.056394712148137
O 6.450150850202809 -8.430277009993034 8.722377970206722
H 6.349659952831111 -7.470515304255876 8.810277939751282
H 5.566577369899142 -8.7769705855081 8.917476442524276
O -5.21022513024832 13.389555815463176 8.105941150828897
H -5.732584495355974 13.066627913041863 7.356390872046944
H -4.732372524729775 14.152261735146643 7.746916761993077
O -0.9754173487808582 6.55376919177871 -5.434900935991369
H -1.6556731701926317 5.88200871656527 -5.5928795366827515
H -0.35262977160105846 6.432985542605716 -6.167368606337965
O 6.475353073411723 9.701380499327987 -1.231545473847818
H 6.359780151937355 10.092950690774178 -0.3527491141075907
H 5.850456914068902 10.188895834214115 -1.789035861737562
O -1.2773033566757328 2.445290404255026 7.75098432653297
H -1.6075555151086531 2.8063834098121037 6.914615562118521
H -1.090019569571829 1.516641375666512 7.547274461554302
O 1.41446507640519 3.9152835049109598 -9.977678913538712
H 0.926839019723487 4.472938041170501 -10.602346508291483
H 1.1785059692478803 3.0119002462731865 -10.236877547914983
O -1.7101233904513022 -12.786106658860337 -4.64689305612707
H -2.6176344494636283 -12.650465092036248 -4.9583290849031805
H -1.544971285024987 -12.026111144435227 -4.068884799761329
C -1.319766936063861 8.809783471378935 2.2959952232517034
O -0.5856920514898429 8.636551267643245 1.3665099222778152
O -2.0538418206378792 8.983015675114626 3.225480524225591