146

C -5.3564454929577465 1.0091607042253532 -0.0734429577464788
C -4.079135492957747 0.16955070422535368 -0.19788295774647868
C -4.333545492957747 -1.2789292957746463 0.3017270422535212
C -3.1403854929577464 -2.1745492957746464 0.7330270422535212
C -2.905235492957746 0.902300704225353 0.41966704225352136
C -2.7423854929577463 1.056130704225354 1.8024770422535212
C -1.8861754929577463 1.3499307042253532 -0.4326129577464788
C -1.5304554929577463 1.5279207042253526 2.3254170422535214
H -3.5237954929577464 0.7301007042253529 2.484817042253521
C -0.6776454929577462 1.8010507042253527 0.08546704225352131
H -1.9759254929577463 1.2426607042253535 -1.5115229577464788
C -0.4680254929577463 1.8513207042253539 1.4698070422535212
H -1.3950654929577464 1.5446707042253527 3.404047042253521
H 0.1461845070422536 1.9972507042253538 -0.6030529577464789
C -1.8679654929577463 -2.0866092957746467 -0.08765295774647863
C -0.6628654929577462 -1.814079295774647 0.5787970422535212
C -1.8438954929577462 -2.213429295774647 -1.4808029577464787
C 0.5129345070422537 -1.5763292957746469 -0.13022295774647863
H -0.6401854929577462 -1.7032692957746463 1.6609470422535213
C -0.6547954929577462 -1.9962392957746466 -2.1933129577464787
H -2.7578654929577464 -2.4351492957746466 -2.026182957746479
C 0.5308845070422537 -1.645769295774647 -1.5261029577464789
H 1.4044045070422537 -1.2610992957746463 0.41551704225352126
H -0.6795654929577464 -2.0467992957746466 -3.2793129577464786
C 1.7843245070422535 -1.2521692957746469 -2.2771629577464787
H 1.4981245070422535 -0.9384492957746469 -3.290282957746479
H 2.241984507042254 -0.38631929577464685 -1.8135029577464787
C 0.9385645070422537 2.0647807042253534 1.9815670422535212
H 1.0508945070422537 1.5807407042253532 2.9609770422535213
H 1.6053245070422537 1.5496207042253536 1.3096170422535214
C 3.9676945070422533 -1.6881692957746468 -3.314052957746479
H 4.795084507042254 -2.398849295774647 -3.4044129577464783
H 3.548404507042253 -1.4816192957746468 -4.303802957746479
H 4.307714507042253 -0.7637192957746466 -2.851282957746479
C 2.344694507042253 -3.565079295774647 -3.101282957746479
H 1.6334345070422536 -4.047909295774646 -2.4251929577464786
H 1.8561845070422536 -3.293109295774647 -4.041792957746479
H 3.1808045070422537 -4.243519295774647 -3.298122957746479
C 3.5156645070422536 -2.648489295774647 -1.1110629577464786
H 3.9311845070422535 -1.748249295774647 -0.6771029577464787
H 2.767184507042254 -3.1044092957746465 -0.45972295774647876
H 4.319224507042254 -3.371819295774647 -1.2863129577464787
C 2.963994507042253 3.381090704225353 2.401027042253521
H 3.3337945070422537 4.369820704225353 2.6912870422535216
H 3.120994507042253 2.671350704225353 3.2183370422535216
H 3.4665445070422534 3.0664207042253535 1.4881370422535212
C 1.2973745070422538 4.282440704225354 0.8488370422535213
H 1.7592145070422538 3.7367207042253527 0.02653704225352116
H 0.23311450704225378 4.4484607042253534 0.6605570422535213
H 1.7921845070422535 5.251370704225354 0.9736770422535213
C 0.7724845070422537 4.194670704225353 3.2772470422535216
H -0.2956954929577462 4.278220704225354 3.057857042253521
H 0.9298945070422537 3.612620704225354 4.190337042253521
H 1.2046345070422537 5.193640704225353 3.3918370422535213
N 2.876084507042253 -2.324759295774647 -2.4576629577464786
N 1.4527845070422536 3.504690704225353 2.1388470422535213
C -3.593905492957746 -3.637819295774647 0.8297870422535213
H -2.8952554929577463 -1.8680692957746468 1.7595270422535212
H -5.022615492957747 -1.2402792957746467 1.1579970422535213
H -4.898275492957747 -1.7933092957746464 -0.48931295774647876
H -3.883675492957746 0.07871070422535364 -1.2758929577464788
H -3.8751654929577466 -4.038529295774646 -0.1505529577464788
H -4.4603554929577465 -3.7321892957746465 1.4932570422535212
H -2.7953554929577464 -4.271929295774647 1.2313670422535212
H -5.648775492957746 1.147700704225353 0.9733970422535213
H -6.189795492957747 0.5254307042253537 -0.5943629577464788
H -5.2178854929577465 2.002970704225354 -0.5139729577464787
C 3.6710445070422537 1.0263707042253536 -0.27764295774647874
O 2.7356545070422538 1.6631507042253526 -0.7327029577464788
O 3.650814507042253 0.3883007042253537 0.7790570422535212
O 4.756604507042254 0.8696707042253538 -0.8334829577464786
O -6.23610572194906 9.006984757576735 -7.141629118169538
H -6.559747675102145 8.278174125728667 -7.692136435073209
H -5.419939791458101 8.660499631016902 -6.750754233738926
O 6.278151651382195 -1.535229041957246 6.476870558884932
H 6.191415490036631 -0.6590447279539009 6.881525032614712
H 5.418187083723811 -1.9525830227194865 6.635736985212331
O 1.969056160424818 -3.629945483908391 -8.094947280578472
H 1.9098296427301065 -3.8211718870509186 -7.146848108949822
H 1.514758756984603 -2.77944629329549 -8.191004244377453
O -2.2234153279244926 9.113016359941362 -0.8839300206089946
H -2.63662453480407 9.542980329638423 -0.12015224336466013
H -1.765588221504058 9.835222641808851 -1.3397527617681255
O -2.065647504131017 -7.018074410199027 -9.156209276422096
H -2.0259506366971207 -6.287683487357294 -9.791756769097773
H -1.2078967446579343 -6.984066732368976 -8.706688357251526
O -7.4752365001757894 -8.30010606343057 7.51305621479623
H -7.884424713245804 -8.447704210331164 6.64717680620859
H -6.597099599478375 -8.70092974972206 7.428333724032317
O -3.5467529677813334 -1.5953369631933043 7.597302807325537
H -4.267087355196046 -0.959541505719667 7.471406566461242
H -2.788230071451749 -1.1790652751925417 7.161042745191982
O 2.972536831544673 -9.509237278284976 -5.101010390697613
H 2.9285315383446444 -9.495013078948812 -4.133111344710054
H 2.119785305671203 -9.142868538830779 -5.379489700828922
O -3.593012472683929 -6.365701732990238 -8.217447215970347
H -3.5925725469153846 -6.3405852748359 -7.248769598341499
H -3.524854520006874 -5.434257750885605 -8.475765906714814
O -0.7532938785758712 2.626882779270753 -2.6539896531521263
H -0.20598857185897868 1.9387233279129916 -3.0612498005352387
H -1.4747602199771332 2.1344310950099676 -2.2345381050636814
O 0.23940098515924224 -1.9160437977349296 6.8559097850899535
H 0.344634048092873 -1.9199382498630118 7.819174127110475
H 0.41863670433301087 -0.9975260391331355 6.6045900118817995
O 0.11527475159316447 1.7361054836642218 -8.420497337494513
H 0.1691756960231301 2.4213055557787713 -9.103551439497988
H -0.03010540147827445 0.9185971504574906 -8.920003774420481
O 0.5712519244259631 7.2553124603200505 8.416532113968964
H 1.1046394914307367 6.454468070345598 8.531045533755362
H 1.118865798775369 7.957804522310255 8.798089307271336
O 3.041743439630952 5.01867867171662 -10.895494480928168
H 3.175232860733598 5.641633919758034 -10.16537483984779
H 2.3480949269357683 4.424305082041739 -10.572177730615481
O -7.534085098628419 -6.680457106223754 4.156872508587043
H -7.491930534566721 -6.707779737839707 5.124572784204626
H -7.04960447701222 -7.472320545564923 3.879036648746822
O -5.233873665292829 6.57361871132847 -1.9509487485801822
H -5.485420221904711 7.023387507006714 -2.7715581058207928
H -6.054232639562507 6.151730689913833 -1.6543284609698334
O 1.9998277407635991 -11.900191425846833 1.5655719372841026
H 1.2129389484633437 -11.444114300202031 1.8998877175216218
H 1.6665215701417133 -12.764797519416929 1.2821548526070594
O 2.105553830719243 0.5433930234060462 5.852039315002397
H 1.6365220310843822 1.2929157712811299 5.455564626971662
H 1.4705071072977431 0.1792284717057207 6.486910784401139
O 6.217930883665149 -4.78834805407033 8.409967390228708
H 6.840065762974486 -5.3639271766736245 7.9402608622029875
H 6.523937168743492 -3.893001056990835 8.2009797049138
O 9.540393606472046 -2.463099821862484 -6.252576295880654
H 9.249656506483321 -3.1121161728730384 -5.594384020241465
H 8.714009539217013 -2.1276927255962335 -6.631460707622903
O -4.590853495662673 10.992399610446194 -0.22550782467573727
H -4.4314403651130965 10.511698663199653 -1.0516321555271309
H -5.528258629451958 10.832851947083917 -0.0390189441462796
O 4.858269915036993 6.398032717900655 7.0068003579969265
H 4.476378193750277 5.527855179107638 7.196318486662222
H 4.113044144967362 6.909727666388018 6.657846527789201
O 7.039595782602547 -5.212483703355326 -6.127099574275864
H 7.849303751417775 -4.801689865870124 -5.788589921206267
H 6.477343844915215 -5.302439699895537 -5.343044332884482
O -2.736469799110303 -9.661257933886526 -8.37382838387069
H -2.7637446858910595 -9.349698196939274 -9.290972847826318
H -3.630063821394293 -9.488475160668624 -8.04126593722728
C -6.693601543244001 4.349389741295878 4.8443908671499845
O -7.147953206849555 3.309504126342539 4.463574991834919
O -6.2392498796384475 5.389275356249219 5.225206742465051