146

C -5.3564454929577465 1.0091607042253532 -0.0734429577464788
C -4.079135492957747 0.16955070422535368 -0.19788295774647868
C -4.333545492957747 -1.2789292957746463 0.3017270422535212
C -3.1403854929577464 -2.1745492957746464 0.7330270422535212
C -2.905235492957746 0.902300704225353 0.41966704225352136
C -2.7423854929577463 1.056130704225354 1.8024770422535212
C -1.8861754929577463 1.3499307042253532 -0.4326129577464788
C -1.5304554929577463 1.5279207042253526 2.3254170422535214
H -3.5237954929577464 0.7301007042253529 2.484817042253521
C -0.6776454929577462 1.8010507042253527 0.08546704225352131
H -1.9759254929577463 1.2426607042253535 -1.5115229577464788
C -0.4680254929577463 1.8513207042253539 1.4698070422535212
H -1.3950654929577464 1.5446707042253527 3.404047042253521
H 0.1461845070422536 1.9972507042253538 -0.6030529577464789
C -1.8679654929577463 -2.0866092957746467 -0.08765295774647863
C -0.6628654929577462 -1.814079295774647 0.5787970422535212
C -1.8438954929577462 -2.213429295774647 -1.4808029577464787
C 0.5129345070422537 -1.5763292957746469 -0.13022295774647863
H -0.6401854929577462 -1.7032692957746463 1.6609470422535213
C -0.6547954929577462 -1.9962392957746466 -2.1933129577464787
H -2.7578654929577464 -2.4351492957746466 -2.026182957746479
C 0.5308845070422537 -1.645769295774647 -1.5261029577464789
H 1.4044045070422537 -1.2610992957746463 0.41551704225352126
H -0.6795654929577464 -2.0467992957746466 -3.2793129577464786
C 1.7843245070422535 -1.2521692957746469 -2.2771629577464787
H 1.4981245070422535 -0.9384492957746469 -3.290282957746479
H 2.241984507042254 -0.38631929577464685 -1.8135029577464787
C 0.9385645070422537 2.0647807042253534 1.9815670422535212
H 1.0508945070422537 1.5807407042253532 2.9609770422535213
H 1.6053245070422537 1.5496207042253536 1.3096170422535214
C 3.9676945070422533 -1.6881692957746468 -3.314052957746479
H 4.795084507042254 -2.398849295774647 -3.4044129577464783
H 3.548404507042253 -1.4816192957746468 -4.303802957746479
H 4.307714507042253 -0.7637192957746466 -2.851282957746479
C 2.344694507042253 -3.565079295774647 -3.101282957746479
H 1.6334345070422536 -4.047909295774646 -2.4251929577464786
H 1.8561845070422536 -3.293109295774647 -4.041792957746479
H 3.1808045070422537 -4.243519295774647 -3.298122957746479
C 3.5156645070422536 -2.648489295774647 -1.1110629577464786
H 3.9311845070422535 -1.748249295774647 -0.6771029577464787
H 2.767184507042254 -3.1044092957746465 -0.45972295774647876
H 4.319224507042254 -3.371819295774647 -1.2863129577464787
C 2.963994507042253 3.381090704225353 2.401027042253521
H 3.3337945070422537 4.369820704225353 2.6912870422535216
H 3.120994507042253 2.671350704225353 3.2183370422535216
H 3.4665445070422534 3.0664207042253535 1.4881370422535212
C 1.2973745070422538 4.282440704225354 0.8488370422535213
H 1.7592145070422538 3.7367207042253527 0.02653704225352116
H 0.23311450704225378 4.4484607042253534 0.6605570422535213
H 1.7921845070422535 5.251370704225354 0.9736770422535213
C 0.7724845070422537 4.194670704225353 3.2772470422535216
H -0.2956954929577462 4.278220704225354 3.057857042253521
H 0.9298945070422537 3.612620704225354 4.190337042253521
H 1.2046345070422537 5.193640704225353 3.3918370422535213
N 2.876084507042253 -2.324759295774647 -2.4576629577464786
N 1.4527845070422536 3.504690704225353 2.1388470422535213
C -3.593905492957746 -3.637819295774647 0.8297870422535213
H -2.8952554929577463 -1.8680692957746468 1.7595270422535212
H -5.022615492957747 -1.2402792957746467 1.1579970422535213
H -4.898275492957747 -1.7933092957746464 -0.48931295774647876
H -3.883675492957746 0.07871070422535364 -1.2758929577464788
H -3.8751654929577466 -4.038529295774646 -0.1505529577464788
H -4.4603554929577465 -3.7321892957746465 1.4932570422535212
H -2.7953554929577464 -4.271929295774647 1.2313670422535212
H -5.648775492957746 1.147700704225353 0.9733970422535213
H -6.189795492957747 0.5254307042253537 -0.5943629577464788
H -5.2178854929577465 2.002970704225354 -0.5139729577464787
C 3.6710445070422537 1.0263707042253536 -0.27764295774647874
O 2.7356545070422538 1.6631507042253526 -0.7327029577464788
O 3.650814507042253 0.3883007042253537 0.7790570422535212
O 4.756604507042254 0.8696707042253538 -0.8334829577464786
O -5.592356335690416 -2.2795672302628844 -2.102136521709513
H -4.944914708326695 -2.0317806219576156 -2.7791804588370734
H -6.442514302226142 -2.0114300520877917 -2.481999431080956
O 5.596942519238182 5.4819031694222335 -3.858051556129744
H 5.014681896281568 5.467958659777455 -4.6324839124430275
H 4.990094622565342 5.593815832485436 -3.1109417044681202
O 6.848163482757145 0.022502795639442574 -7.211405591047514
H 6.67068284295097 0.7757647462144694 -7.79455601178808
H 6.641240102446446 -0.7504485556417997 -7.757931772975969
O 8.981325686037293 -1.7121725038291729 9.908579538855875
H 9.908174998758088 -1.6471293445309994 10.183692417212193
H 8.571776830163177 -2.2614461308918727 10.59380224832017
O 4.232000510752069 -4.880963808219424 -8.959986447501434
H 4.826039305304698 -4.480651962918655 -8.30742557372922
H 3.446597049667438 -4.313755946814476 -8.940529069037012
O -5.189210228488608 4.774056592491801 4.153454315168537
H -4.929391173181169 5.258165138764813 3.3552686658208537
H -4.525329191255618 4.072153388359102 4.227991585917477
O -3.8079395217521856 -14.40156932290904 -4.252695499521266
H -3.948084646310387 -14.43658528595056 -5.210871153195917
H -3.8654184663946793 -13.457481376684857 -4.042086703368336
O -0.8318134205786283 -2.3502616106192855 8.934217679316525
H -0.21452169706578106 -1.6873795964114744 8.589971081334301
H -1.679541877801963 -2.1134413874618563 8.528959010047858
O 1.4928246672530485 0.4227457487104065 -13.243166291437293
H 0.9961222721612035 0.1342199411088525 -14.023555262372872
H 1.754597193584183 -0.40516792349210085 -12.813054631355431
O 2.7939477154488195 -11.357415377633055 -5.56707808112991
H 3.70257896326712 -11.675079195190111 -5.678641118930237
H 2.5933397751293286 -10.921584908742375 -6.408962990703245
O -8.16025785116994 10.490437482567662 -2.096961909566218
H -7.660511872627202 9.981809918748828 -2.7531016166058726
H -7.475378016030295 10.905473458233931 -1.5513918456680609
O 4.335039890080945 8.464215975111877 -3.147125180906782
H 4.482041948633443 7.513546118946027 -3.030572290513919
H 4.7693899367836075 8.864150978707926 -2.378780223138447
O -5.262181539653124 -2.989442811226479 -4.191704052514059
H -5.372546039611775 -3.031888938401287 -5.153465644768989
H -4.616769294780133 -3.6861113598503654 -3.9991997361305214
O -2.4767554829705323 0.9076078572327173 7.147318866729183
H -2.7225291941441307 0.9703842307753636 6.2121067160805765
H -2.0661199804818065 0.033205902847223356 7.223224403830634
O 3.4313405527753797 2.6342879858875574 6.084439169391013
H 3.8745079874021497 3.434980653387089 5.765909368589247
H 2.4988461086255165 2.779758430645472 5.864770314904149
O -6.952901768190165 -6.939193517446368 1.4499008758960732
H -6.917683400303394 -6.589453849311522 0.5469007718006635
H -6.282816660799974 -7.639128754091455 1.45611035707104
O -8.532613226331039 0.48775511389903414 1.6355345610046803
H -8.550909963369682 0.49589279908077977 0.6667382127489583
H -7.597083146631734 0.6159427955403278 1.8530508421269045
O -3.6724451391603816 0.6532420820531768 -7.423906659412178
H -4.291634739507881 0.08439129046230409 -7.905550067576293
H -3.397836876850344 0.11290561861701542 -6.667871770764595
O -11.558141515136317 -4.286901552888119 8.820653731286894
H -11.499971059593744 -4.777956859007238 9.653989342750984
H -11.823248697071485 -4.956556371566544 8.172392556907958
O 2.191197747435292 6.6102824470723505 -3.016286077607645
H 1.639407906303449 5.98587978050605 -3.5108734188413155
H 1.591391895450649 7.344282836657725 -2.815193282327723
O 1.589320935765186 -11.61530633562992 7.128961421278248
H 1.5860406550166875 -12.069747602959607 7.98478834957976
H 2.1776704580000796 -10.858078572751134 7.2682916014674674
O -2.9436355884301038 2.9703876565363423 0.6358640510548526
H -2.668747666097365 3.897868965826752 0.5794512158793512
H -2.9842196519378152 2.7958006566616174 1.588142506950997
O -5.485328327779337 0.6139383993163079 2.9973811219882593
H -5.88620427675748 0.0265303773857474 3.6555738340433996
H -4.940038110061469 1.2177183706579116 3.5237557689536425
O -7.298606574654013 10.699195042833635 7.091988193160575
H -7.5124088517458265 10.738669321526592 8.03628566987648
H -8.06819094246258 10.263635086040395 6.695769353170652
C 9.77842903311291 -2.1064464683838833 6.882269700141291
O 10.047126470634495 -2.956940793469205 7.680567481277502
O 9.50973159559133 -1.2559521432985603 6.083971919005079