146

C -5.3564454929577465 1.0091607042253532 -0.0734429577464788
C -4.079135492957747 0.16955070422535368 -0.19788295774647868
C -4.333545492957747 -1.2789292957746463 0.3017270422535212
C -3.1403854929577464 -2.1745492957746464 0.7330270422535212
C -2.905235492957746 0.902300704225353 0.41966704225352136
C -2.7423854929577463 1.056130704225354 1.8024770422535212
C -1.8861754929577463 1.3499307042253532 -0.4326129577464788
C -1.5304554929577463 1.5279207042253526 2.3254170422535214
H -3.5237954929577464 0.7301007042253529 2.484817042253521
C -0.6776454929577462 1.8010507042253527 0.08546704225352131
H -1.9759254929577463 1.2426607042253535 -1.5115229577464788
C -0.4680254929577463 1.8513207042253539 1.4698070422535212
H -1.3950654929577464 1.5446707042253527 3.404047042253521
H 0.1461845070422536 1.9972507042253538 -0.6030529577464789
C -1.8679654929577463 -2.0866092957746467 -0.08765295774647863
C -0.6628654929577462 -1.814079295774647 0.5787970422535212
C -1.8438954929577462 -2.213429295774647 -1.4808029577464787
C 0.5129345070422537 -1.5763292957746469 -0.13022295774647863
H -0.6401854929577462 -1.7032692957746463 1.6609470422535213
C -0.6547954929577462 -1.9962392957746466 -2.1933129577464787
H -2.7578654929577464 -2.4351492957746466 -2.026182957746479
C 0.5308845070422537 -1.645769295774647 -1.5261029577464789
H 1.4044045070422537 -1.2610992957746463 0.41551704225352126
H -0.6795654929577464 -2.0467992957746466 -3.2793129577464786
C 1.7843245070422535 -1.2521692957746469 -2.2771629577464787
H 1.4981245070422535 -0.9384492957746469 -3.290282957746479
H 2.241984507042254 -0.38631929577464685 -1.8135029577464787
C 0.9385645070422537 2.0647807042253534 1.9815670422535212
H 1.0508945070422537 1.5807407042253532 2.9609770422535213
H 1.6053245070422537 1.5496207042253536 1.3096170422535214
C 3.9676945070422533 -1.6881692957746468 -3.314052957746479
H 4.795084507042254 -2.398849295774647 -3.4044129577464783
H 3.548404507042253 -1.4816192957746468 -4.303802957746479
H 4.307714507042253 -0.7637192957746466 -2.851282957746479
C 2.344694507042253 -3.565079295774647 -3.101282957746479
H 1.6334345070422536 -4.047909295774646 -2.4251929577464786
H 1.8561845070422536 -3.293109295774647 -4.041792957746479
H 3.1808045070422537 -4.243519295774647 -3.298122957746479
C 3.5156645070422536 -2.648489295774647 -1.1110629577464786
H 3.9311845070422535 -1.748249295774647 -0.6771029577464787
H 2.767184507042254 -3.1044092957746465 -0.45972295774647876
H 4.319224507042254 -3.371819295774647 -1.2863129577464787
C 2.963994507042253 3.381090704225353 2.401027042253521
H 3.3337945070422537 4.369820704225353 2.6912870422535216
H 3.120994507042253 2.671350704225353 3.2183370422535216
H 3.4665445070422534 3.0664207042253535 1.4881370422535212
C 1.2973745070422538 4.282440704225354 0.8488370422535213
H 1.7592145070422538 3.7367207042253527 0.02653704225352116
H 0.23311450704225378 4.4484607042253534 0.6605570422535213
H 1.7921845070422535 5.251370704225354 0.9736770422535213
C 0.7724845070422537 4.194670704225353 3.2772470422535216
H -0.2956954929577462 4.278220704225354 3.057857042253521
H 0.9298945070422537 3.612620704225354 4.190337042253521
H 1.2046345070422537 5.193640704225353 3.3918370422535213
N 2.876084507042253 -2.324759295774647 -2.4576629577464786
N 1.4527845070422536 3.504690704225353 2.1388470422535213
C -3.593905492957746 -3.637819295774647 0.8297870422535213
H -2.8952554929577463 -1.8680692957746468 1.7595270422535212
H -5.022615492957747 -1.2402792957746467 1.1579970422535213
H -4.898275492957747 -1.7933092957746464 -0.48931295774647876
H -3.883675492957746 0.07871070422535364 -1.2758929577464788
H -3.8751654929577466 -4.038529295774646 -0.1505529577464788
H -4.4603554929577465 -3.7321892957746465 1.4932570422535212
H -2.7953554929577464 -4.271929295774647 1.2313670422535212
H -5.648775492957746 1.147700704225353 0.9733970422535213
H -6.189795492957747 0.5254307042253537 -0.5943629577464788
H -5.2178854929577465 2.002970704225354 -0.5139729577464787
C 3.6710445070422537 1.0263707042253536 -0.27764295774647874
O 2.7356545070422538 1.6631507042253526 -0.7327029577464788
O 3.650814507042253 0.3883007042253537 0.7790570422535212
O 4.756604507042254 0.8696707042253538 -0.8334829577464786
O -4.521567624519944 -0.8476272670448601 -11.367076945487652
H -5.219019615351157 -1.343628607876802 -10.912642409741858
H -3.8427714311330656 -0.7218541787229258 -10.687092532138754
O 4.119603907636096 1.955935529788705 6.848208932941676
H 4.085423164346558 1.7675759447225687 7.7981140336764225
H 4.657047113667996 2.7599993311464583 6.78822436879164
O 11.716611782676697 3.451761817494086 -1.072505039690772
H 12.611132279339849 3.7947876804947627 -0.927130711619575
H 11.145320708638131 4.22240557733604 -0.9357693514432708
O -3.8970494947358048 -2.6015365497291025 13.743108663647543
H -3.212463908693788 -2.074991286141125 14.182494618903945
H -3.5714737566569537 -3.5117204089915077 13.810397038665858
O 5.60550433678901 0.7740267052161206 1.597021979478047
H 5.184595224195687 0.5853084012641954 2.449188792719099
H 5.2148867373776655 1.6180038251349926 1.324841053651929
O -0.02434742128386909 5.241530840716431 14.16847850400026
H -0.5912861925164465 5.604194914189966 14.86563168400081
H 0.3582673487046498 4.446016089388713 14.568133558399216
O 3.030269602195557 -3.711901883549807 10.526011790840055
H 3.9671369984220384 -3.497197493216449 10.64909251053001
H 2.709203995270367 -3.8822094319392892 11.424273534048194
O 7.918372563078725 -9.203791171586674 -3.846209529530146
H 8.186881802655488 -10.029159615267602 -4.277065743756693
H 7.161258924086617 -8.90178905591485 -4.370170982388912
O -7.85369141368884 -0.8411773088047556 -7.944979484990953
H -7.676337754106672 -0.6708460717177354 -8.882262956521961
H -8.418338563726286 -0.10127668544921331 -7.6753823636920275
O 3.0744858127989803 11.156821732033727 -8.745283003292514
H 2.866341027264898 11.298722576263826 -9.680968450203899
H 2.6393808331063338 10.317323472009724 -8.533414477165264
O 0.7207934002802343 -7.029729983776789 -6.817705285211526
H 0.6069447959752843 -7.2235015815611865 -7.760286008592763
H 1.6504114492478061 -6.766554018210892 -6.743471610358518
O 10.07445254994737 -1.3609710346760968 -7.586787784492346
H 10.366601655115184 -1.6689254779519112 -8.457867756777514
H 10.896642569264861 -1.2739879208027132 -7.081417173617917
O -6.297712452433213 -4.572062155559354 -7.562538271219356
H -6.013824500981393 -4.039267938731092 -8.320499556797222
H -5.472960932712578 -4.771487431078262 -7.094589091817671
O 10.974239967650021 -2.546187615218096 -5.599372848006981
H 10.487322693085101 -2.2870140360310565 -6.396058470120025
H 10.289385091391017 -2.896355488953824 -5.010035760282425
O 5.173475608897844 -5.539213859592719 4.299462981313955
H 6.120164804088935 -5.618955642190338 4.108706139453439
H 4.768370283807516 -5.418530430817205 3.427518527863825
O -9.004912858083955 1.0781753532166247 -5.4545460767541245
H -8.904162917346177 0.9699602381942958 -4.496889407993322
H -8.177869760954726 0.7276522573571542 -5.817995136541029
O -1.8777601738596523 4.652426843312411 7.260589946790481
H -1.2185556673737494 5.029399264459316 7.862510680129448
H -2.247803740764344 3.9065087506218745 7.756206635259872
O -5.682981352831123 -5.546378010628779 -4.061650041148372
H -6.202000687871659 -5.122145836836772 -4.761373807697565
H -5.191734822846635 -4.814910074403251 -3.658421260736849
O -2.8546685808285135 12.078351919063099 3.0103510583524904
H -3.392622129260779 12.864877657112638 3.1862788845050494
H -2.720561871962859 12.096335066829672 2.050843923760137
O -8.056369455582809 5.354008533767587 -0.166663413408771
H -7.467977381651119 5.8352904249222926 -0.7676042303624167
H -7.7870812640426905 5.653850194165014 0.7145521067037413
O 4.041886748792291 4.771623331441276 -1.0397878786691064
H 4.001108819520686 4.820687614494247 -2.0066887078717808
H 3.8293142341653024 5.671698440388231 -0.7505826425835785
O 10.847889213158538 7.065151478827553 -6.719915156253116
H 11.393400688768567 7.273446042236725 -5.946611876981683
H 10.006772012814276 6.769617652935723 -6.34025273075019
O 7.554094699077098 2.9552873822426546 5.277823087250942
H 7.689162107190356 2.957248222811759 6.237364804566991
H 8.437509890725533 3.123140846217492 4.91676248555587
O -4.859386169915126 8.290951293460365 -4.840849733503262
H -5.091528860102739 8.471019392453652 -5.764241637310851
H -5.059022154144213 9.121359567876379 -4.38310579210993
C 4.887768391321182 -2.1518025032861012 -6.8832180635017854
O 5.980663105747024 -1.9415157206387952 -6.44256074820576
O 3.7948736768953393 -2.3620892859334055 -7.323875378797812