146

C -5.3564454929577465 1.0091607042253532 -0.0734429577464788
C -4.079135492957747 0.16955070422535368 -0.19788295774647868
C -4.333545492957747 -1.2789292957746463 0.3017270422535212
C -3.1403854929577464 -2.1745492957746464 0.7330270422535212
C -2.905235492957746 0.902300704225353 0.41966704225352136
C -2.7423854929577463 1.056130704225354 1.8024770422535212
C -1.8861754929577463 1.3499307042253532 -0.4326129577464788
C -1.5304554929577463 1.5279207042253526 2.3254170422535214
H -3.5237954929577464 0.7301007042253529 2.484817042253521
C -0.6776454929577462 1.8010507042253527 0.08546704225352131
H -1.9759254929577463 1.2426607042253535 -1.5115229577464788
C -0.4680254929577463 1.8513207042253539 1.4698070422535212
H -1.3950654929577464 1.5446707042253527 3.404047042253521
H 0.1461845070422536 1.9972507042253538 -0.6030529577464789
C -1.8679654929577463 -2.0866092957746467 -0.08765295774647863
C -0.6628654929577462 -1.814079295774647 0.5787970422535212
C -1.8438954929577462 -2.213429295774647 -1.4808029577464787
C 0.5129345070422537 -1.5763292957746469 -0.13022295774647863
H -0.6401854929577462 -1.7032692957746463 1.6609470422535213
C -0.6547954929577462 -1.9962392957746466 -2.1933129577464787
H -2.7578654929577464 -2.4351492957746466 -2.026182957746479
C 0.5308845070422537 -1.645769295774647 -1.5261029577464789
H 1.4044045070422537 -1.2610992957746463 0.41551704225352126
H -0.6795654929577464 -2.0467992957746466 -3.2793129577464786
C 1.7843245070422535 -1.2521692957746469 -2.2771629577464787
H 1.4981245070422535 -0.9384492957746469 -3.290282957746479
H 2.241984507042254 -0.38631929577464685 -1.8135029577464787
C 0.9385645070422537 2.0647807042253534 1.9815670422535212
H 1.0508945070422537 1.5807407042253532 2.9609770422535213
H 1.6053245070422537 1.5496207042253536 1.3096170422535214
C 3.9676945070422533 -1.6881692957746468 -3.314052957746479
H 4.795084507042254 -2.398849295774647 -3.4044129577464783
H 3.548404507042253 -1.4816192957746468 -4.303802957746479
H 4.307714507042253 -0.7637192957746466 -2.851282957746479
C 2.344694507042253 -3.565079295774647 -3.101282957746479
H 1.6334345070422536 -4.047909295774646 -2.4251929577464786
H 1.8561845070422536 -3.293109295774647 -4.041792957746479
H 3.1808045070422537 -4.243519295774647 -3.298122957746479
C 3.5156645070422536 -2.648489295774647 -1.1110629577464786
H 3.9311845070422535 -1.748249295774647 -0.6771029577464787
H 2.767184507042254 -3.1044092957746465 -0.45972295774647876
H 4.319224507042254 -3.371819295774647 -1.2863129577464787
C 2.963994507042253 3.381090704225353 2.401027042253521
H 3.3337945070422537 4.369820704225353 2.6912870422535216
H 3.120994507042253 2.671350704225353 3.2183370422535216
H 3.4665445070422534 3.0664207042253535 1.4881370422535212
C 1.2973745070422538 4.282440704225354 0.8488370422535213
H 1.7592145070422538 3.7367207042253527 0.02653704225352116
H 0.23311450704225378 4.4484607042253534 0.6605570422535213
H 1.7921845070422535 5.251370704225354 0.9736770422535213
C 0.7724845070422537 4.194670704225353 3.2772470422535216
H -0.2956954929577462 4.278220704225354 3.057857042253521
H 0.9298945070422537 3.612620704225354 4.190337042253521
H 1.2046345070422537 5.193640704225353 3.3918370422535213
N 2.876084507042253 -2.324759295774647 -2.4576629577464786
N 1.4527845070422536 3.504690704225353 2.1388470422535213
C -3.593905492957746 -3.637819295774647 0.8297870422535213
H -2.8952554929577463 -1.8680692957746468 1.7595270422535212
H -5.022615492957747 -1.2402792957746467 1.1579970422535213
H -4.898275492957747 -1.7933092957746464 -0.48931295774647876
H -3.883675492957746 0.07871070422535364 -1.2758929577464788
H -3.8751654929577466 -4.038529295774646 -0.1505529577464788
H -4.4603554929577465 -3.7321892957746465 1.4932570422535212
H -2.7953554929577464 -4.271929295774647 1.2313670422535212
H -5.648775492957746 1.147700704225353 0.9733970422535213
H -6.189795492957747 0.5254307042253537 -0.5943629577464788
H -5.2178854929577465 2.002970704225354 -0.5139729577464787
C 3.6710445070422537 1.0263707042253536 -0.27764295774647874
O 2.7356545070422538 1.6631507042253526 -0.7327029577464788
O 3.650814507042253 0.3883007042253537 0.7790570422535212
O 4.756604507042254 0.8696707042253538 -0.8334829577464786
O 2.5853885465011754 -3.3288442109970493 -6.899979172305173
H 2.6807836862160617 -3.017747818996502 -7.812714708538435
H 2.5763781256364715 -2.514506102325872 -6.374875181288451
O -0.2184200397974827 3.0885193376762734 -11.503843946917405
H -0.27076574404926124 2.9340921914977764 -12.4590295522683
H -1.1004609457204846 2.8519384527222726 -11.179814211471857
O 3.591224206739292 -3.390783676741723 2.8156042686433556
H 3.740506111624296 -3.084428379217125 1.90850521040742
H 2.828597540975754 -3.9837639243558796 2.7398616854695383
O 1.9625364248270463 7.045781922581156 2.5213723828107577
H 2.0835833054131006 7.249074782175181 1.5816984910597571
H 2.4906582577731724 7.718846840553155 2.976381053124819
O -3.543789967335897 -5.226967308162459 -6.782419129164041
H -3.618886016715874 -5.171992139677306 -5.81789558299342
H -4.023031036821752 -6.038210028402263 -7.0086384706801335
O -8.096935889717372 -3.0515836957116598 5.785017138785919
H -8.477546484324685 -2.7423413757736244 6.620763583428078
H -8.068732313521672 -4.015200786008409 5.883040635345671
O -7.054595786435643 6.2858966106854 -6.801596418554289
H -7.803379749108734 6.510687278688817 -6.2290939384529675
H -6.399196199814272 6.973590263906485 -6.6105708561916146
O -2.8873662752836555 -5.931411532931204 -10.974452167171656
H -2.6371867137838003 -6.85487937249698 -11.128025254642932
H -2.049415384483122 -5.494397712169237 -10.760398039975708
O -6.628711680742153 -11.647132313924189 1.6621554395258764
H -5.666090506904487 -11.537381912939999 1.645342288030574
H -6.83329662630157 -12.050532417557061 0.8051984390063431
O -6.211078221079795 4.091713422677373 -7.293629851161924
H -6.498714460454007 3.9603851387326197 -8.209591440168142
H -7.016923883789157 4.369583594173291 -6.832801379835185
O 3.2438506546646746 -7.919821661153555 -6.790631557867584
H 3.251459948798029 -7.831892763640832 -5.82565592888777
H 2.795106526965094 -7.116845562882922 -7.095295368913813
O 1.8419716928885905 -1.9177573588143422 -12.090794504544258
H 2.242685248724198 -2.515616297701742 -12.739609341197998
H 0.8919830648046869 -2.0932206489467275 -12.166267576743417
O -6.483064543605419 4.206205622388372 -12.247452840313946
H -6.97715348297801 3.7703949759640354 -12.958024833396188
H -6.765039448744959 5.131788259849153 -12.299882587621099
O -4.93973441344183 3.917277237022359 -1.0338890438839063
H -4.568819316670891 3.877202735588866 -1.9281951336665175
H -4.413988758010313 4.601432702394963 -0.5928847930022623
O 2.5192865178827466 -6.450020260009489 2.6662869008029944
H 2.278769434703748 -6.041878346691843 3.5115910284354572
H 3.4734322018416495 -6.296590933037692 2.5953827421973212
O -7.092238786352189 -4.515230081602853 3.3026226287114113
H -7.309658386872652 -3.6479000804216133 3.676032247308031
H -7.316435255570037 -4.428775098668781 2.3638876163590865
O -12.708569058347688 4.5130626041393604 0.15158732150103837
H -12.349390416607681 3.673761326170797 0.47644332809186896
H -11.965704439059952 4.918544475361188 -0.320322154798105
O 1.9150602471359266 0.33462758278340154 -7.161689941843829
H 1.8506980924231036 0.467575605023908 -6.20401061486477
H 1.0427276277803013 -0.0066276824622281405 -7.409767730955002
O -7.055547579661564 -1.2891098788275415 -6.790194691216085
H -7.887780087601006 -1.1256097946321881 -7.258835419383131
H -6.645606628446417 -2.0131661602154134 -7.286836274452515
O 15.593780773217032 0.47342121592930475 3.833770792934201
H 16.278830922308387 -0.2105372570158126 3.7904757884129645
H 16.087492924492658 1.2883661020825032 4.010052069635803
O -1.7547450127695745 7.546438451805778 -5.785677043688436
H -1.517122125181272 7.954220276895301 -4.939381171477743
H -0.9838561609410763 7.003207135988729 -6.0083697915322265
O 1.6694067104529953 10.104746612838944 -8.537907823541268
H 1.9650426278062751 10.219567455082469 -9.453540356524439
H 2.4648858179859614 9.80859045071446 -8.070503863979251
O -11.41967772921069 8.138087575203768 9.431510626387158
H -11.413479822147142 8.132712747038518 10.400479178028656
H -10.897228839181452 7.358616728406204 9.189778748886681
O -2.095462979283621 -0.4780806763733598 8.39002594350274
H -2.282280575268116 0.4381328295855933 8.644229315291902
H -1.389280248652685 -0.7496079805643816 8.995452089566314
C -2.68659422496932 3.1683586618295116 12.064438234419605
O -1.9443403955721745 4.084551048660831 11.858358103505429
O -3.428848054366465 2.252166274998192 12.270518365333778