146

C -5.3564454929577465 1.0091607042253532 -0.0734429577464788
C -4.079135492957747 0.16955070422535368 -0.19788295774647868
C -4.333545492957747 -1.2789292957746463 0.3017270422535212
C -3.1403854929577464 -2.1745492957746464 0.7330270422535212
C -2.905235492957746 0.902300704225353 0.41966704225352136
C -2.7423854929577463 1.056130704225354 1.8024770422535212
C -1.8861754929577463 1.3499307042253532 -0.4326129577464788
C -1.5304554929577463 1.5279207042253526 2.3254170422535214
H -3.5237954929577464 0.7301007042253529 2.484817042253521
C -0.6776454929577462 1.8010507042253527 0.08546704225352131
H -1.9759254929577463 1.2426607042253535 -1.5115229577464788
C -0.4680254929577463 1.8513207042253539 1.4698070422535212
H -1.3950654929577464 1.5446707042253527 3.404047042253521
H 0.1461845070422536 1.9972507042253538 -0.6030529577464789
C -1.8679654929577463 -2.0866092957746467 -0.08765295774647863
C -0.6628654929577462 -1.814079295774647 0.5787970422535212
C -1.8438954929577462 -2.213429295774647 -1.4808029577464787
C 0.5129345070422537 -1.5763292957746469 -0.13022295774647863
H -0.6401854929577462 -1.7032692957746463 1.6609470422535213
C -0.6547954929577462 -1.9962392957746466 -2.1933129577464787
H -2.7578654929577464 -2.4351492957746466 -2.026182957746479
C 0.5308845070422537 -1.645769295774647 -1.5261029577464789
H 1.4044045070422537 -1.2610992957746463 0.41551704225352126
H -0.6795654929577464 -2.0467992957746466 -3.2793129577464786
C 1.7843245070422535 -1.2521692957746469 -2.2771629577464787
H 1.4981245070422535 -0.9384492957746469 -3.290282957746479
H 2.241984507042254 -0.38631929577464685 -1.8135029577464787
C 0.9385645070422537 2.0647807042253534 1.9815670422535212
H 1.0508945070422537 1.5807407042253532 2.9609770422535213
H 1.6053245070422537 1.5496207042253536 1.3096170422535214
C 3.9676945070422533 -1.6881692957746468 -3.314052957746479
H 4.795084507042254 -2.398849295774647 -3.4044129577464783
H 3.548404507042253 -1.4816192957746468 -4.303802957746479
H 4.307714507042253 -0.7637192957746466 -2.851282957746479
C 2.344694507042253 -3.565079295774647 -3.101282957746479
H 1.6334345070422536 -4.047909295774646 -2.4251929577464786
H 1.8561845070422536 -3.293109295774647 -4.041792957746479
H 3.1808045070422537 -4.243519295774647 -3.298122957746479
C 3.5156645070422536 -2.648489295774647 -1.1110629577464786
H 3.9311845070422535 -1.748249295774647 -0.6771029577464787
H 2.767184507042254 -3.1044092957746465 -0.45972295774647876
H 4.319224507042254 -3.371819295774647 -1.2863129577464787
C 2.963994507042253 3.381090704225353 2.401027042253521
H 3.3337945070422537 4.369820704225353 2.6912870422535216
H 3.120994507042253 2.671350704225353 3.2183370422535216
H 3.4665445070422534 3.0664207042253535 1.4881370422535212
C 1.2973745070422538 4.282440704225354 0.8488370422535213
H 1.7592145070422538 3.7367207042253527 0.02653704225352116
H 0.23311450704225378 4.4484607042253534 0.6605570422535213
H 1.7921845070422535 5.251370704225354 0.9736770422535213
C 0.7724845070422537 4.194670704225353 3.2772470422535216
H -0.2956954929577462 4.278220704225354 3.057857042253521
H 0.9298945070422537 3.612620704225354 4.190337042253521
H 1.2046345070422537 5.193640704225353 3.3918370422535213
N 2.876084507042253 -2.324759295774647 -2.4576629577464786
N 1.4527845070422536 3.504690704225353 2.1388470422535213
C -3.593905492957746 -3.637819295774647 0.8297870422535213
H -2.8952554929577463 -1.8680692957746468 1.7595270422535212
H -5.022615492957747 -1.2402792957746467 1.1579970422535213
H -4.898275492957747 -1.7933092957746464 -0.48931295774647876
H -3.883675492957746 0.07871070422535364 -1.2758929577464788
H -3.8751654929577466 -4.038529295774646 -0.1505529577464788
H -4.4603554929577465 -3.7321892957746465 1.4932570422535212
H -2.7953554929577464 -4.271929295774647 1.2313670422535212
H -5.648775492957746 1.147700704225353 0.9733970422535213
H -6.189795492957747 0.5254307042253537 -0.5943629577464788
H -5.2178854929577465 2.002970704225354 -0.5139729577464787
C 3.6710445070422537 1.0263707042253536 -0.27764295774647874
O 2.7356545070422538 1.6631507042253526 -0.7327029577464788
O 3.650814507042253 0.3883007042253537 0.7790570422535212
O 4.756604507042254 0.8696707042253538 -0.8334829577464786
O -9.27557046894377 1.1658416011487711 6.438133206453991
H -8.580359611384996 1.8277178792023996 6.570681359901219
H -9.160303139939119 0.553489957465035 7.180225418811701
O -8.55690651730109 -8.640196998319023 8.752299828347208
H -8.692251324149181 -8.709034936866189 9.709331948171737
H -9.257935925413284 -9.193548423778854 8.376371759159177
O -1.7861380469175858 1.6851478687840267 13.295210994643323
H -1.6009858396614867 0.8650306488729809 12.813449889266838
H -2.5627441916815723 2.050582568100301 12.845430691883807
O -2.912755810268413 -8.351794478139936 0.05840097430114666
H -3.36894982403233 -7.524092488145057 0.2723257144891056
H -3.5873503104514928 -9.033453571261425 0.19705552845472463
O 5.625923438048154 6.9794797931402055 1.2677376155551292
H 5.745936295607956 7.087937828057299 2.223143877614497
H 5.937058882717386 6.078472187065125 1.0935481406568655
O 9.6745149951641 2.1607860538105825 8.804074217627344
H 8.9653875326037 1.7149595088666114 9.291254154166161
H 9.234484338884663 2.503556363963577 8.011708468549363
O -0.2709731584042938 -9.095163299223767 7.648110184189694
H 0.20347791875111998 -9.310044115416925 8.465233043445407
H -0.6588908681873091 -9.939665450187665 7.373705534531475
O 6.897877910256545 -4.213543962143457 -7.600719237905489
H 7.162265289488783 -3.345629153615564 -7.940999351548211
H 5.9924213993786575 -4.326851058394358 -7.926713031018225
O 1.802589348996709 11.378316622318504 -7.393365018582134
H 2.1831309970073036 12.25931680585903 -7.2592229758403315
H 0.8477149047816601 11.520670922119681 -7.310226619432774
O 1.4227219494616539 2.0716224449874456 5.399841541787004
H 1.6128256592022001 2.507631520228858 6.244071381789127
H 0.5651474001587523 2.437201308903324 5.1354934172506255
O -9.022582329772419 4.5697403506969305 4.9157041223370825
H -8.257325282328598 4.204803360560203 5.384926885497093
H -8.662840473182523 4.843624502444532 4.058653824898972
O -2.7981850325655175 12.021472141303764 -10.27497724975964
H -2.385342916296918 12.340619215506646 -11.091478253410342
H -2.136512513903264 11.423231276166854 -9.896481160443797
O -9.4468345319155 2.5425035085729926 -11.64803009240462
H -9.258389362585396 2.4101551314529406 -12.589273781429858
H -9.469496674261855 3.5059645507556185 -11.547078659524049
O -6.950936369789486 1.9721991161496653 1.8954762230014681
H -6.960577859456867 1.6404110753903878 2.805855866109834
H -7.3101464843679125 2.8691170592552573 1.969423780228103
O -7.599821382665022 -5.984008593354375 -6.261010509426159
H -6.849079721945472 -5.45051635879074 -6.5622419012503705
H -7.186890150440391 -6.733582900115918 -5.806490872450594
O 11.878143076481322 0.9760770715313223 -3.148779308799625
H 11.92925866122389 1.0781480477011316 -4.111035028304668
H 11.777929937764807 0.02095277026017417 -3.0197179270857877
O 5.451064674477694 -5.3239544290186025 -2.490865918826742
H 5.6576070854833125 -6.246733186113227 -2.7024952051055715
H 4.842179270451295 -5.386732746507756 -1.7396805942118108
O -4.178029874776903 -8.429785352373493 2.653192263880953
H -4.185066854477596 -9.247516097536122 2.1333516476989716
H -4.544541223107345 -7.7658376870010954 2.0500298699176476
O -2.1469971327788313 0.10607067474546827 -11.336889368507748
H -3.107341806752454 0.0145508181068994 -11.428155900770966
H -1.79408129949082 -0.683897701858915 -11.773194677757662
O -1.402478206128933 6.0750116001738 0.12406811343836388
H -0.7890644295676139 5.84592841135351 0.838359222318146
H -0.9642330477974692 5.7463207081612735 -0.6752224613884876
O 0.7507920221927096 8.499409594367718 0.7751093905194999
H 0.5613674303387239 8.964582380277566 1.6037830054909317
H 0.6956913312376631 7.562174190493604 1.0149336092322983
O -3.077003404464281 -5.138190652812724 4.562074874437771
H -3.677596282034676 -4.738216045770881 5.208817378092383
H -2.1964645664153535 -4.864240252469972 4.859672719086369
O 2.5626147357247584 3.5075497795087704 7.13962718430559
H 3.230461753849164 3.2674427246168607 7.799397083189643
H 3.0397308458684127 3.4647048544944417 6.29731698364202
O -4.876110616290358 -3.763853872498783 9.195430381908619
H -5.807843131558991 -3.546457186175873 9.348990004423802
H -4.797366640500903 -4.681769348761577 9.495751058875953
C 6.493006475067406 -9.286947781119608 -8.9304978681493
O 6.56676674218523 -9.227211814002786 -7.7372630653852665
O 6.419246207949583 -9.346683748236426 -10.123732670913336