146

C -5.3564454929577465 1.0091607042253532 -0.0734429577464788
C -4.079135492957747 0.16955070422535368 -0.19788295774647868
C -4.333545492957747 -1.2789292957746463 0.3017270422535212
C -3.1403854929577464 -2.1745492957746464 0.7330270422535212
C -2.905235492957746 0.902300704225353 0.41966704225352136
C -2.7423854929577463 1.056130704225354 1.8024770422535212
C -1.8861754929577463 1.3499307042253532 -0.4326129577464788
C -1.5304554929577463 1.5279207042253526 2.3254170422535214
H -3.5237954929577464 0.7301007042253529 2.484817042253521
C -0.6776454929577462 1.8010507042253527 0.08546704225352131
H -1.9759254929577463 1.2426607042253535 -1.5115229577464788
C -0.4680254929577463 1.8513207042253539 1.4698070422535212
H -1.3950654929577464 1.5446707042253527 3.404047042253521
H 0.1461845070422536 1.9972507042253538 -0.6030529577464789
C -1.8679654929577463 -2.0866092957746467 -0.08765295774647863
C -0.6628654929577462 -1.814079295774647 0.5787970422535212
C -1.8438954929577462 -2.213429295774647 -1.4808029577464787
C 0.5129345070422537 -1.5763292957746469 -0.13022295774647863
H -0.6401854929577462 -1.7032692957746463 1.6609470422535213
C -0.6547954929577462 -1.9962392957746466 -2.1933129577464787
H -2.7578654929577464 -2.4351492957746466 -2.026182957746479
C 0.5308845070422537 -1.645769295774647 -1.5261029577464789
H 1.4044045070422537 -1.2610992957746463 0.41551704225352126
H -0.6795654929577464 -2.0467992957746466 -3.2793129577464786
C 1.7843245070422535 -1.2521692957746469 -2.2771629577464787
H 1.4981245070422535 -0.9384492957746469 -3.290282957746479
H 2.241984507042254 -0.38631929577464685 -1.8135029577464787
C 0.9385645070422537 2.0647807042253534 1.9815670422535212
H 1.0508945070422537 1.5807407042253532 2.9609770422535213
H 1.6053245070422537 1.5496207042253536 1.3096170422535214
C 3.9676945070422533 -1.6881692957746468 -3.314052957746479
H 4.795084507042254 -2.398849295774647 -3.4044129577464783
H 3.548404507042253 -1.4816192957746468 -4.303802957746479
H 4.307714507042253 -0.7637192957746466 -2.851282957746479
C 2.344694507042253 -3.565079295774647 -3.101282957746479
H 1.6334345070422536 -4.047909295774646 -2.4251929577464786
H 1.8561845070422536 -3.293109295774647 -4.041792957746479
H 3.1808045070422537 -4.243519295774647 -3.298122957746479
C 3.5156645070422536 -2.648489295774647 -1.1110629577464786
H 3.9311845070422535 -1.748249295774647 -0.6771029577464787
H 2.767184507042254 -3.1044092957746465 -0.45972295774647876
H 4.319224507042254 -3.371819295774647 -1.2863129577464787
C 2.963994507042253 3.381090704225353 2.401027042253521
H 3.3337945070422537 4.369820704225353 2.6912870422535216
H 3.120994507042253 2.671350704225353 3.2183370422535216
H 3.4665445070422534 3.0664207042253535 1.4881370422535212
C 1.2973745070422538 4.282440704225354 0.8488370422535213
H 1.7592145070422538 3.7367207042253527 0.02653704225352116
H 0.23311450704225378 4.4484607042253534 0.6605570422535213
H 1.7921845070422535 5.251370704225354 0.9736770422535213
C 0.7724845070422537 4.194670704225353 3.2772470422535216
H -0.2956954929577462 4.278220704225354 3.057857042253521
H 0.9298945070422537 3.612620704225354 4.190337042253521
H 1.2046345070422537 5.193640704225353 3.3918370422535213
N 2.876084507042253 -2.324759295774647 -2.4576629577464786
N 1.4527845070422536 3.504690704225353 2.1388470422535213
C -3.593905492957746 -3.637819295774647 0.8297870422535213
H -2.8952554929577463 -1.8680692957746468 1.7595270422535212
H -5.022615492957747 -1.2402792957746467 1.1579970422535213
H -4.898275492957747 -1.7933092957746464 -0.48931295774647876
H -3.883675492957746 0.07871070422535364 -1.2758929577464788
H -3.8751654929577466 -4.038529295774646 -0.1505529577464788
H -4.4603554929577465 -3.7321892957746465 1.4932570422535212
H -2.7953554929577464 -4.271929295774647 1.2313670422535212
H -5.648775492957746 1.147700704225353 0.9733970422535213
H -6.189795492957747 0.5254307042253537 -0.5943629577464788
H -5.2178854929577465 2.002970704225354 -0.5139729577464787
C 3.6710445070422537 1.0263707042253536 -0.27764295774647874
O 2.7356545070422538 1.6631507042253526 -0.7327029577464788
O 3.650814507042253 0.3883007042253537 0.7790570422535212
O 4.756604507042254 0.8696707042253538 -0.8334829577464786
O 5.3357684489372295 -5.277369442873779 -1.5820250976331254
H 4.966455112678283 -5.034977838748823 -2.4444758653938234
H 6.230905329224845 -4.906652234454523 -1.5981701040062193
O 5.751324724779115 3.8661224531898224 -8.86948972087012
H 5.68642058858055 3.497915217700331 -9.763457417007686
H 6.657532070664082 4.205901424779469 -8.821526807805915
O 5.64426858403262 -5.720647537758191 1.873387135665236
H 5.436377916496188 -6.11273548039275 2.734790567566837
H 4.885916979031695 -5.95822771158647 1.3189320441598493
O 1.9901586208785078 -8.174343170116579 2.4748293196528364
H 2.002701649208762 -7.94505818426285 1.533426948398991
H 2.4982065810701366 -7.4644463229546725 2.895419001926082
O -7.276609936931439 -5.153089231682212 4.969545024918828
H -7.2284663533198845 -5.144665973588184 5.937314936096129
H -6.353790355301584 -5.0615950198863455 4.6884849365598615
O -0.9833344343534537 -6.49679223975273 10.881249473337745
H -1.3565977499249793 -7.36366754568575 11.100723977807135
H -0.4118885001202817 -6.674187281536568 10.119053640431996
O -7.438331777830866 0.3073716291694213 -2.482541709660981
H -6.958048380482417 1.140693151573923 -2.6003146073449432
H -7.7095099038996775 0.32295504428870503 -1.5523903642257197
O 6.271331396293987 -6.618410904414558 11.023560837085286
H 6.115567290322126 -7.142605578773584 11.823513862933945
H 5.624188001590266 -5.899799768439393 11.0849237431754
O -4.124869605270291 -7.457055200951712 6.756165842195947
H -5.085948172441128 -7.4799498753577955 6.63462910491585
H -3.9345513416122175 -8.257476834934783 7.268089772746224
O -1.7824970311435284 -8.970404670425543 -7.83317103912908
H -1.7896730497920843 -9.026072483994684 -8.800547365172253
H -1.7453237935970156 -9.895061217006718 -7.545785643580031
O -1.552250641373762 -5.5018053241531515 7.015919204618349
H -1.1911740815165133 -5.136445669796081 7.8375659643574345
H -2.2932698575306527 -6.052401661697682 7.310361284947868
O -5.706790764538655 6.30609643216008 2.3466901424515902
H -5.5467608745212855 6.211262534041845 3.2976708588537313
H -6.0719725893227094 5.447825146960736 2.0840600220357186
O 9.701014790686303 9.067001041921394 -0.40969371417855405
H 10.170140986613427 9.220143539096838 -1.2436213757618688
H 9.956207010082299 9.820074447004181 0.14412875016968751
O -5.103401242653289 2.3158124703057146 6.886914234158801
H -6.019771726401978 2.128712348804221 7.140342799928962
H -4.975290131146972 3.242531245024595 7.1393856186603974
O 6.738469033781903 9.648992036627352 -3.5464920546863095
H 6.282590470529321 10.498388762900584 -3.6448144522520813
H 6.242711842671589 9.049071907716312 -4.123798377785038
O -7.098613571617949 6.509708737314713 -4.596722645482191
H -7.774682799600549 7.198225607879989 -4.5081660261812555
H -6.645349174601762 6.731760391179929 -5.42389033931052
O 10.925566513250281 -0.10556012304966433 7.04892720919228
H 11.085671462768136 0.02324571461451974 7.995892265687774
H 10.277434993984455 -0.825185606231964 7.016885954709761
O -12.990500470256526 1.3326926237447148 0.6058575434158149
H -13.573094509273796 1.9769442948871196 1.035382079189691
H -12.90107522126295 0.6245714152001325 1.2612424861416893
O -13.09675958539291 4.996491534666512 -6.32471957976806
H -12.586536822244216 5.642581438415553 -5.813634532893799
H -13.842285820452124 4.776513739621735 -5.746133072125795
O -5.34803745846482 7.623524617889531 7.458902864075672
H -5.46319103926168 8.066822514196504 8.312831423651634
H -4.5192721559067515 7.13177322679905 7.560345394290624
O -8.525881159144367 6.818137272475278 6.402258375556558
H -8.459281970413873 6.492523033281554 7.312482123980391
H -9.386054590651101 6.4909119660617405 6.09896444077959
O 3.4896291378767175 3.940842581266719 9.103779325589903
H 3.609563138478035 4.029388640527459 10.061246185480707
H 3.3628637821725835 2.9894224949896975 8.970766888871271
O 2.165151222791859 8.028032801072742 -3.326744148648645
H 2.3800524283480056 8.898414730441083 -3.694467041299569
H 3.027147054080608 7.596806605399497 -3.226898771660034
O -8.556462431989036 8.136167585328996 3.7677407256455417
H -9.376137934471288 8.385059479717142 3.3148033652541233
H -8.466385131421415 7.188845058059048 3.584907321833965
C -0.5758474214179059 -9.370971160057817 -5.872076313524728
O -0.5837436246396097 -9.500619330070135 -7.062012135023997
O -0.5679512181962021 -9.241322990045498 -4.68214049202546