146

C -5.3564454929577465 1.0091607042253532 -0.0734429577464788
C -4.079135492957747 0.16955070422535368 -0.19788295774647868
C -4.333545492957747 -1.2789292957746463 0.3017270422535212
C -3.1403854929577464 -2.1745492957746464 0.7330270422535212
C -2.905235492957746 0.902300704225353 0.41966704225352136
C -2.7423854929577463 1.056130704225354 1.8024770422535212
C -1.8861754929577463 1.3499307042253532 -0.4326129577464788
C -1.5304554929577463 1.5279207042253526 2.3254170422535214
H -3.5237954929577464 0.7301007042253529 2.484817042253521
C -0.6776454929577462 1.8010507042253527 0.08546704225352131
H -1.9759254929577463 1.2426607042253535 -1.5115229577464788
C -0.4680254929577463 1.8513207042253539 1.4698070422535212
H -1.3950654929577464 1.5446707042253527 3.404047042253521
H 0.1461845070422536 1.9972507042253538 -0.6030529577464789
C -1.8679654929577463 -2.0866092957746467 -0.08765295774647863
C -0.6628654929577462 -1.814079295774647 0.5787970422535212
C -1.8438954929577462 -2.213429295774647 -1.4808029577464787
C 0.5129345070422537 -1.5763292957746469 -0.13022295774647863
H -0.6401854929577462 -1.7032692957746463 1.6609470422535213
C -0.6547954929577462 -1.9962392957746466 -2.1933129577464787
H -2.7578654929577464 -2.4351492957746466 -2.026182957746479
C 0.5308845070422537 -1.645769295774647 -1.5261029577464789
H 1.4044045070422537 -1.2610992957746463 0.41551704225352126
H -0.6795654929577464 -2.0467992957746466 -3.2793129577464786
C 1.7843245070422535 -1.2521692957746469 -2.2771629577464787
H 1.4981245070422535 -0.9384492957746469 -3.290282957746479
H 2.241984507042254 -0.38631929577464685 -1.8135029577464787
C 0.9385645070422537 2.0647807042253534 1.9815670422535212
H 1.0508945070422537 1.5807407042253532 2.9609770422535213
H 1.6053245070422537 1.5496207042253536 1.3096170422535214
C 3.9676945070422533 -1.6881692957746468 -3.314052957746479
H 4.795084507042254 -2.398849295774647 -3.4044129577464783
H 3.548404507042253 -1.4816192957746468 -4.303802957746479
H 4.307714507042253 -0.7637192957746466 -2.851282957746479
C 2.344694507042253 -3.565079295774647 -3.101282957746479
H 1.6334345070422536 -4.047909295774646 -2.4251929577464786
H 1.8561845070422536 -3.293109295774647 -4.041792957746479
H 3.1808045070422537 -4.243519295774647 -3.298122957746479
C 3.5156645070422536 -2.648489295774647 -1.1110629577464786
H 3.9311845070422535 -1.748249295774647 -0.6771029577464787
H 2.767184507042254 -3.1044092957746465 -0.45972295774647876
H 4.319224507042254 -3.371819295774647 -1.2863129577464787
C 2.963994507042253 3.381090704225353 2.401027042253521
H 3.3337945070422537 4.369820704225353 2.6912870422535216
H 3.120994507042253 2.671350704225353 3.2183370422535216
H 3.4665445070422534 3.0664207042253535 1.4881370422535212
C 1.2973745070422538 4.282440704225354 0.8488370422535213
H 1.7592145070422538 3.7367207042253527 0.02653704225352116
H 0.23311450704225378 4.4484607042253534 0.6605570422535213
H 1.7921845070422535 5.251370704225354 0.9736770422535213
C 0.7724845070422537 4.194670704225353 3.2772470422535216
H -0.2956954929577462 4.278220704225354 3.057857042253521
H 0.9298945070422537 3.612620704225354 4.190337042253521
H 1.2046345070422537 5.193640704225353 3.3918370422535213
N 2.876084507042253 -2.324759295774647 -2.4576629577464786
N 1.4527845070422536 3.504690704225353 2.1388470422535213
C -3.593905492957746 -3.637819295774647 0.8297870422535213
H -2.8952554929577463 -1.8680692957746468 1.7595270422535212
H -5.022615492957747 -1.2402792957746467 1.1579970422535213
H -4.898275492957747 -1.7933092957746464 -0.48931295774647876
H -3.883675492957746 0.07871070422535364 -1.2758929577464788
H -3.8751654929577466 -4.038529295774646 -0.1505529577464788
H -4.4603554929577465 -3.7321892957746465 1.4932570422535212
H -2.7953554929577464 -4.271929295774647 1.2313670422535212
H -5.648775492957746 1.147700704225353 0.9733970422535213
H -6.189795492957747 0.5254307042253537 -0.5943629577464788
H -5.2178854929577465 2.002970704225354 -0.5139729577464787
C 3.6710445070422537 1.0263707042253536 -0.27764295774647874
O 2.7356545070422538 1.6631507042253526 -0.7327029577464788
O 3.650814507042253 0.3883007042253537 0.7790570422535212
O 4.756604507042254 0.8696707042253538 -0.8334829577464786
O 11.760350967769924 6.024124826209732 -0.5472779808838935
H 11.069712797437898 6.508806615622101 -0.07075952626491588
H 11.286257670090063 5.286994363408883 -0.9606013049366764
O -3.2130455593796197 -6.102526852666692 -5.974185350144746
H -3.1404505643580123 -5.254427529310684 -6.437245671615821
H -4.0019659277172535 -6.512701371218079 -6.3593132004141735
O -2.796636890227896 4.855968298727596 -2.8331629763739947
H -2.38908601256056 4.220951395003989 -2.225196553783184
H -2.691641205720646 4.445962536933238 -3.7048470509275453
O 6.3555303494956 -7.553853394518481 0.7016771473101465
H 6.642283320368273 -7.594198918706687 1.6263999864753071
H 6.901550674978158 -6.851417825924463 0.3177396257862417
O 8.258391138390033 0.06990703589108166 0.30054426277331775
H 8.24380278364299 0.6453966919870557 1.0800095875519848
H 8.782224714371447 -0.6945195385018317 0.5837620964922415
O -2.187568732219167 -12.430733304054373 4.513108731206147
H -2.346762551960473 -12.556034869959074 5.460697356210693
H -2.1538427448118407 -11.468182940120023 4.406707138345654
O 10.084663108695564 -2.43963318061754 -6.417936301810155
H 10.103942386322016 -2.2789024746880564 -5.4625508787867485
H 9.168408981374968 -2.7021313002140857 -6.592679129062815
O 4.5142318029277755 -3.2740235804589943 -12.36371409557492
H 4.896890602179535 -3.9553800479019383 -11.79074554100244
H 3.5842300755045384 -3.5332105047785753 -12.44666510251005
O -0.01822098780218484 -7.560656710351655 3.3068532118600937
H 0.33431177759365305 -6.897387466729439 3.9190312224805157
H -0.9756403148182398 -7.528318524064996 3.4526764550822
O 1.8186884169154771 -7.413755936780368 -5.785927059583829
H 1.6832648480584722 -7.494025643816733 -4.829797053763319
H 2.3901078431303033 -6.636480560621621 -5.876947789429283
O 8.528058076691844 -4.0908186100025095 -7.571830783799976
H 8.448859646954794 -4.071127786567089 -6.606270202013612
H 7.712538137333917 -4.5244950582752566 -7.864770898880134
O -7.7674159470119335 9.034055517684521 3.374077164885457
H -7.572542434714267 9.50936688889942 4.195704070176774
H -7.9789782938116245 8.135315794322517 3.66813536893322
O 4.114606005447002 8.092757578626934 0.22300813903102723
H 4.464103803984874 8.281792053976169 1.1067980534601412
H 3.812315628384975 8.95540389610683 -0.09858757483044434
O -5.6365289425256755 -6.232479189781099 -0.685990661481551
H -5.131093506718043 -5.989508079195209 -1.4762231693870465
H -5.298364711951976 -7.110029041993175 -0.45251013907537524
O 4.71018045762501 0.2339112559752139 9.544776638974659
H 3.7566810827730475 0.12668244769740378 9.409468539689223
H 4.809356893803134 1.1682702450094151 9.781629459135175
O 3.187836911207556 2.496279990816265 10.426416668121362
H 3.7623917622536833 2.2008317758348572 9.704222489036773
H 3.790519012177974 2.597944266250685 11.17834791801744
O 3.953002495616978 -6.441524047982123 2.621440689518783
H 3.7050370539177218 -6.546064453828258 3.5523283305197904
H 4.912045759468763 -6.580030523782105 2.6177099359779925
O -7.897891064212741 7.352938763009486 5.237670690462073
H -8.324724188485789 7.468111880676107 6.099944425357357
H -8.571025940540613 6.908375922091798 4.7008138538228685
O -3.3771303940083985 1.7566250805845234 4.317608613006383
H -3.23111713415645 1.1661490068219855 3.5632973435947517
H -4.0305524843907605 1.2881814157845255 4.85849866561328
O -4.980322198708437 -5.495417583348144 9.759120843351601
H -5.018415086353531 -5.375161996459916 10.719878295902985
H -5.908131734774429 -5.598009201110561 9.499108595467202
O -10.325421082657208 0.6263906610088372 3.652547557015753
H -10.157899021768852 0.47648818705190354 4.5951147770681535
H -9.807492256544608 1.4188619318729354 3.445905450375638
O -6.723582208168697 -11.233236284690843 6.3235717453120985
H -7.186801006782034 -10.389892729314978 6.208822675088374
H -6.596904944601205 -11.555720356702789 5.418630399978797
O -3.125057390855468 -6.043693700489923 -8.846790161003186
H -3.4536868772986598 -6.374810816788662 -7.997477808076365
H -3.7640694485196637 -6.380819655383285 -9.49252356187154
O 5.059631750704332 -7.405027119056591 7.142951680269637
H 5.270741505692454 -8.235103343915547 7.596133199280245
H 4.766435182804788 -7.686589638773856 6.263337978487774
C 2.1627641758915677 7.608425868681778 9.753987425889097
O 3.128102575170051 7.397071601993703 9.07851025667373
O 1.197425776613085 7.819780135369852 10.429464595104461