146

C -5.3564454929577465 1.0091607042253532 -0.0734429577464788
C -4.079135492957747 0.16955070422535368 -0.19788295774647868
C -4.333545492957747 -1.2789292957746463 0.3017270422535212
C -3.1403854929577464 -2.1745492957746464 0.7330270422535212
C -2.905235492957746 0.902300704225353 0.41966704225352136
C -2.7423854929577463 1.056130704225354 1.8024770422535212
C -1.8861754929577463 1.3499307042253532 -0.4326129577464788
C -1.5304554929577463 1.5279207042253526 2.3254170422535214
H -3.5237954929577464 0.7301007042253529 2.484817042253521
C -0.6776454929577462 1.8010507042253527 0.08546704225352131
H -1.9759254929577463 1.2426607042253535 -1.5115229577464788
C -0.4680254929577463 1.8513207042253539 1.4698070422535212
H -1.3950654929577464 1.5446707042253527 3.404047042253521
H 0.1461845070422536 1.9972507042253538 -0.6030529577464789
C -1.8679654929577463 -2.0866092957746467 -0.08765295774647863
C -0.6628654929577462 -1.814079295774647 0.5787970422535212
C -1.8438954929577462 -2.213429295774647 -1.4808029577464787
C 0.5129345070422537 -1.5763292957746469 -0.13022295774647863
H -0.6401854929577462 -1.7032692957746463 1.6609470422535213
C -0.6547954929577462 -1.9962392957746466 -2.1933129577464787
H -2.7578654929577464 -2.4351492957746466 -2.026182957746479
C 0.5308845070422537 -1.645769295774647 -1.5261029577464789
H 1.4044045070422537 -1.2610992957746463 0.41551704225352126
H -0.6795654929577464 -2.0467992957746466 -3.2793129577464786
C 1.7843245070422535 -1.2521692957746469 -2.2771629577464787
H 1.4981245070422535 -0.9384492957746469 -3.290282957746479
H 2.241984507042254 -0.38631929577464685 -1.8135029577464787
C 0.9385645070422537 2.0647807042253534 1.9815670422535212
H 1.0508945070422537 1.5807407042253532 2.9609770422535213
H 1.6053245070422537 1.5496207042253536 1.3096170422535214
C 3.9676945070422533 -1.6881692957746468 -3.314052957746479
H 4.795084507042254 -2.398849295774647 -3.4044129577464783
H 3.548404507042253 -1.4816192957746468 -4.303802957746479
H 4.307714507042253 -0.7637192957746466 -2.851282957746479
C 2.344694507042253 -3.565079295774647 -3.101282957746479
H 1.6334345070422536 -4.047909295774646 -2.4251929577464786
H 1.8561845070422536 -3.293109295774647 -4.041792957746479
H 3.1808045070422537 -4.243519295774647 -3.298122957746479
C 3.5156645070422536 -2.648489295774647 -1.1110629577464786
H 3.9311845070422535 -1.748249295774647 -0.6771029577464787
H 2.767184507042254 -3.1044092957746465 -0.45972295774647876
H 4.319224507042254 -3.371819295774647 -1.2863129577464787
C 2.963994507042253 3.381090704225353 2.401027042253521
H 3.3337945070422537 4.369820704225353 2.6912870422535216
H 3.120994507042253 2.671350704225353 3.2183370422535216
H 3.4665445070422534 3.0664207042253535 1.4881370422535212
C 1.2973745070422538 4.282440704225354 0.8488370422535213
H 1.7592145070422538 3.7367207042253527 0.02653704225352116
H 0.23311450704225378 4.4484607042253534 0.6605570422535213
H 1.7921845070422535 5.251370704225354 0.9736770422535213
C 0.7724845070422537 4.194670704225353 3.2772470422535216
H -0.2956954929577462 4.278220704225354 3.057857042253521
H 0.9298945070422537 3.612620704225354 4.190337042253521
H 1.2046345070422537 5.193640704225353 3.3918370422535213
N 2.876084507042253 -2.324759295774647 -2.4576629577464786
N 1.4527845070422536 3.504690704225353 2.1388470422535213
C -3.593905492957746 -3.637819295774647 0.8297870422535213
H -2.8952554929577463 -1.8680692957746468 1.7595270422535212
H -5.022615492957747 -1.2402792957746467 1.1579970422535213
H -4.898275492957747 -1.7933092957746464 -0.48931295774647876
H -3.883675492957746 0.07871070422535364 -1.2758929577464788
H -3.8751654929577466 -4.038529295774646 -0.1505529577464788
H -4.4603554929577465 -3.7321892957746465 1.4932570422535212
H -2.7953554929577464 -4.271929295774647 1.2313670422535212
H -5.648775492957746 1.147700704225353 0.9733970422535213
H -6.189795492957747 0.5254307042253537 -0.5943629577464788
H -5.2178854929577465 2.002970704225354 -0.5139729577464787
C 3.6710445070422537 1.0263707042253536 -0.27764295774647874
O 2.7356545070422538 1.6631507042253526 -0.7327029577464788
O 3.650814507042253 0.3883007042253537 0.7790570422535212
O 4.756604507042254 0.8696707042253538 -0.8334829577464786
O -6.091733876903495 -6.9852071669129625 0.050081827575590765
H -5.192437045747098 -7.107395545951709 -0.28948048835470264
H -6.649199888240121 -7.452137245900556 -0.5903632456672838
O 3.646852483156719 6.462561424890825 2.6787736494576917
H 4.2814031415742715 7.188595422286989 2.582922444839287
H 4.13034963288464 5.7948312386905085 3.188017057801745
O 13.63126184403255 0.12354817961164954 3.427699555260872
H 13.602406795970056 0.15281129110002034 4.395830958226053
H 13.757269292120576 1.0488970603938874 3.169216449117733
O 12.091754521454018 -3.925727222158197 -1.3158025377683842
H 12.172583010966383 -4.197709471586777 -2.2423335778198874
H 11.135274573344434 -3.870737020792751 -1.170598781212042
O -5.223556836977276 -8.316776661318 -2.4218986649188072
H -5.885523426950138 -8.996807924328746 -2.61766656828325
H -5.4241743077192 -7.607041841657066 -3.050381807488259
O 12.801164984257223 -5.767193150744596 -0.2500400085827943
H 12.827029384019133 -6.569843833559479 0.292224014842843
H 13.09586172482259 -5.067973013738823 0.3526265454964719
O -4.545885094882407 2.9212647949073713 2.4491298373739387
H -4.594266237540545 3.4420302179683526 1.6333909109524938
H -3.5999006489399874 2.900944921683218 2.6580855147008955
O -3.9452718049025814 15.403794906768029 0.34679580416295064
H -4.476701025692076 16.004651413170564 -0.19682336299804248
H -4.424364172413979 14.56267332800022 0.3026716903081983
O -1.3074059204111586 -6.259774612169921 -7.3061319850400075
H -2.011221807184733 -6.165349881338101 -7.9654456620045195
H -0.6769767305433421 -6.8668391967933005 -7.7220569433662085
O 2.4815296595493477 -2.8383172513103303 6.69999116508811
H 2.7548517206986514 -2.5709817717725008 7.590381051132071
H 3.227337542314107 -3.364263424673604 6.374241001572456
O 7.436881696798878 9.798725979780079 4.813005000928989
H 7.659451636778864 9.173591418348602 4.106862834774623
H 6.9428512644433695 10.498079329372324 4.35935230489298
O 7.547460120732737 -1.6323695024284115 -7.533750430397443
H 7.025150043181858 -0.8551043210035145 -7.78278532259795
H 6.889414193462747 -2.257840186570898 -7.195041225943669
O 1.5191402784036896 -10.788246933936378 0.5878855489119638
H 0.9689750021759398 -11.460403208062337 0.1583608477755175
H 2.090826827562708 -11.298023960409923 1.1814037180445056
O 4.882796758921951 -5.307480185402628 8.796994333084122
H 5.544001536992367 -5.891002338051454 9.198588027911288
H 4.575827726441653 -4.759048417539992 9.534527080422958
O -8.172096304881622 -10.137392678996324 1.1829138956908283
H -9.099480606222738 -9.866522000548 1.1083834315637597
H -7.962355918591992 -9.999106752836607 2.1187813634902093
O 6.41007120389953 -0.15371131421094408 -6.3571705481083844
H 5.625645093187204 -0.5034006693225783 -5.908438569468188
H 6.0488471269499025 0.4493597677278889 -7.02409211820566
O 2.6629754739453326 0.5632594735431402 5.940402768545237
H 2.693265200665196 0.664581920689141 6.90361803579321
H 3.479205821283838 0.08549196053048336 5.729528000274202
O 1.6807716338719425 -9.798561924373708 -2.745377763637282
H 1.507749463856702 -10.415503061598404 -3.4722988864443702
H 1.0034283226059637 -10.016148852021189 -2.087484222173187
O 6.419780581239924 -9.785115663219115 -4.9004743259542485
H 6.480729517391979 -9.700905849811518 -5.863885604385112
H 5.6207495026152205 -9.28678514203366 -4.672049346263163
O 6.42892355855085 -2.714093388744233 12.568430239605009
H 6.464952537794053 -2.306677115496396 13.446884136999481
H 6.053719627240889 -2.021296308018961 12.00432372557766
O 0.9132058937386927 1.855475873173156 -7.903536067410186
H -0.030845851228850307 2.0032456394189104 -8.06446386459704
H 1.1160500895954448 2.4338788043923847 -7.153025424138399
O -4.260107455966609 1.2691410696099952 -4.900075952804993
H -5.174715600693689 1.5841816385328698 -4.956721680195835
H -4.119790616635878 1.1270757019936146 -3.9518720927494373
O 9.235632606915503 -3.300963691970703 8.464908428458997
H 9.314656790785069 -3.2277398416656133 7.501912684434006
H 9.29376018893496 -4.253543022012869 8.632764761330261
O 2.823355337790986 3.26713692772615 11.001128915931837
H 3.4920563450038107 2.781841948175833 10.494872950361245
H 2.4706481492945063 3.9096676293974024 10.367319890362815
C -0.750574391613195 -0.9382456030372844 10.192431983154982
O -0.8516901205348928 -1.0615303389016855 9.006095293775664
O -0.6494586626914969 -0.8149608671728834 11.3787686725343