146

C -5.3564454929577465 1.0091607042253532 -0.0734429577464788
C -4.079135492957747 0.16955070422535368 -0.19788295774647868
C -4.333545492957747 -1.2789292957746463 0.3017270422535212
C -3.1403854929577464 -2.1745492957746464 0.7330270422535212
C -2.905235492957746 0.902300704225353 0.41966704225352136
C -2.7423854929577463 1.056130704225354 1.8024770422535212
C -1.8861754929577463 1.3499307042253532 -0.4326129577464788
C -1.5304554929577463 1.5279207042253526 2.3254170422535214
H -3.5237954929577464 0.7301007042253529 2.484817042253521
C -0.6776454929577462 1.8010507042253527 0.08546704225352131
H -1.9759254929577463 1.2426607042253535 -1.5115229577464788
C -0.4680254929577463 1.8513207042253539 1.4698070422535212
H -1.3950654929577464 1.5446707042253527 3.404047042253521
H 0.1461845070422536 1.9972507042253538 -0.6030529577464789
C -1.8679654929577463 -2.0866092957746467 -0.08765295774647863
C -0.6628654929577462 -1.814079295774647 0.5787970422535212
C -1.8438954929577462 -2.213429295774647 -1.4808029577464787
C 0.5129345070422537 -1.5763292957746469 -0.13022295774647863
H -0.6401854929577462 -1.7032692957746463 1.6609470422535213
C -0.6547954929577462 -1.9962392957746466 -2.1933129577464787
H -2.7578654929577464 -2.4351492957746466 -2.026182957746479
C 0.5308845070422537 -1.645769295774647 -1.5261029577464789
H 1.4044045070422537 -1.2610992957746463 0.41551704225352126
H -0.6795654929577464 -2.0467992957746466 -3.2793129577464786
C 1.7843245070422535 -1.2521692957746469 -2.2771629577464787
H 1.4981245070422535 -0.9384492957746469 -3.290282957746479
H 2.241984507042254 -0.38631929577464685 -1.8135029577464787
C 0.9385645070422537 2.0647807042253534 1.9815670422535212
H 1.0508945070422537 1.5807407042253532 2.9609770422535213
H 1.6053245070422537 1.5496207042253536 1.3096170422535214
C 3.9676945070422533 -1.6881692957746468 -3.314052957746479
H 4.795084507042254 -2.398849295774647 -3.4044129577464783
H 3.548404507042253 -1.4816192957746468 -4.303802957746479
H 4.307714507042253 -0.7637192957746466 -2.851282957746479
C 2.344694507042253 -3.565079295774647 -3.101282957746479
H 1.6334345070422536 -4.047909295774646 -2.4251929577464786
H 1.8561845070422536 -3.293109295774647 -4.041792957746479
H 3.1808045070422537 -4.243519295774647 -3.298122957746479
C 3.5156645070422536 -2.648489295774647 -1.1110629577464786
H 3.9311845070422535 -1.748249295774647 -0.6771029577464787
H 2.767184507042254 -3.1044092957746465 -0.45972295774647876
H 4.319224507042254 -3.371819295774647 -1.2863129577464787
C 2.963994507042253 3.381090704225353 2.401027042253521
H 3.3337945070422537 4.369820704225353 2.6912870422535216
H 3.120994507042253 2.671350704225353 3.2183370422535216
H 3.4665445070422534 3.0664207042253535 1.4881370422535212
C 1.2973745070422538 4.282440704225354 0.8488370422535213
H 1.7592145070422538 3.7367207042253527 0.02653704225352116
H 0.23311450704225378 4.4484607042253534 0.6605570422535213
H 1.7921845070422535 5.251370704225354 0.9736770422535213
C 0.7724845070422537 4.194670704225353 3.2772470422535216
H -0.2956954929577462 4.278220704225354 3.057857042253521
H 0.9298945070422537 3.612620704225354 4.190337042253521
H 1.2046345070422537 5.193640704225353 3.3918370422535213
N 2.876084507042253 -2.324759295774647 -2.4576629577464786
N 1.4527845070422536 3.504690704225353 2.1388470422535213
C -3.593905492957746 -3.637819295774647 0.8297870422535213
H -2.8952554929577463 -1.8680692957746468 1.7595270422535212
H -5.022615492957747 -1.2402792957746467 1.1579970422535213
H -4.898275492957747 -1.7933092957746464 -0.48931295774647876
H -3.883675492957746 0.07871070422535364 -1.2758929577464788
H -3.8751654929577466 -4.038529295774646 -0.1505529577464788
H -4.4603554929577465 -3.7321892957746465 1.4932570422535212
H -2.7953554929577464 -4.271929295774647 1.2313670422535212
H -5.648775492957746 1.147700704225353 0.9733970422535213
H -6.189795492957747 0.5254307042253537 -0.5943629577464788
H -5.2178854929577465 2.002970704225354 -0.5139729577464787
C 3.6710445070422537 1.0263707042253536 -0.27764295774647874
O 2.7356545070422538 1.6631507042253526 -0.7327029577464788
O 3.650814507042253 0.3883007042253537 0.7790570422535212
O 4.756604507042254 0.8696707042253538 -0.8334829577464786
O 3.382184201511432 7.9864251553421 -7.4507793802450735
H 3.945400099564256 7.425585917448071 -8.005048771713694
H 2.5378307258279547 7.512026877847504 -7.419547558149782
O 14.412172179557839 1.7950684004112496 -0.6457626290729648
H 14.256514519593296 2.2958025241763904 0.16910140074521296
H 14.514406205234412 2.4788178716517066 -1.3247300869620422
O -4.284434385853395 7.64904616014536 -0.752032870860659
H -4.220905764205419 7.716283057941071 -1.7166108463018976
H -3.5654804944388374 8.213402142354383 -0.4302106036621997
O -1.6428000295574017 5.140246737348649 8.653325527382314
H -2.2849082903031777 5.8368339114824614 8.856870724363977
H -2.0407786092193936 4.665531683598292 7.908194255610004
O 2.813581693140439 0.5433080491197333 -4.26712385373398
H 2.1926902520653764 0.5051984305394032 -3.5241508849986465
H 3.2303878645986015 -0.33146692959100044 -4.268939440697984
O -6.2785310652709025 -6.855387564470748 -8.085189444909384
H -6.132419705162354 -6.652582045154608 -9.021399223047883
H -5.5442649475253845 -6.413753097927906 -7.632669599386178
O -7.742729065583944 5.065625379375899 -3.6227068053475815
H -8.085949187747161 4.177079361465292 -3.8006204886253725
H -6.999783789558466 5.1571052401243485 -4.238032488387767
O 3.6026636029559787 6.507131664211518 5.381760370840373
H 3.4453220815439995 6.084434051580431 6.239395334455864
H 4.322338319059013 7.131824442577673 5.557228829428206
O 3.810068911319083 -2.355637675163326 4.98883227857713
H 2.9185191451045878 -2.7214893943511718 4.887546095757473
H 3.662022812856537 -1.4858454449283587 5.3894639963091375
O -0.2133851900529966 5.216203866514911 -10.192424320452933
H 0.16359764123711584 5.391550871537441 -9.31715023215709
H -1.1116339887482338 4.906254919239392 -10.0025751960795
O -3.965163360806203 4.211105950189506 0.3260848506026636
H -3.6937440558706043 3.285318663375808 0.4167315128821407
H -4.0513035833130395 4.337142585196334 -0.6308146075446529
O -5.102644668087705 -7.103323104247837 8.602564472990888
H -5.153388026945198 -7.004862315673229 9.565215989140489
H -6.012041214778515 -6.952962911923664 8.303646963080432
O -0.7580714852030306 -2.31466279644763 -9.671094588341576
H -0.7042999244256372 -2.5419709689343457 -10.611523730208372
H 0.1215327103709942 -1.964721360241414 -9.46421444271493
O -1.7597643561635372 3.6852461206752274 0.9819915016473766
H -0.7992963188008142 3.596956087887536 0.8888605389392195
H -2.1102465550504714 3.3064683941925437 0.16183809740888422
O 3.843075490352995 2.2891668125137925 -2.774140274566279
H 4.198051104057045 1.4202744884886689 -3.014942682830094
H 3.563115248414386 2.6702211470262607 -3.619942734590447
O -0.9969507970594118 -3.636728377875876 9.590919470900669
H -1.1328575632418496 -2.6948127099922172 9.773379281273018
H -0.8866663785941595 -4.031675840695949 10.468880627761134
O -4.872723047077471 -3.7081247557500436 -1.7186504629939559
H -4.459762812950397 -3.6145889643706037 -2.590247994920667
H -4.944655386410392 -4.6665556743780865 -1.5953708739457335
O 3.6008641805947343 -5.6987264825227175 -7.260265973167557
H 3.320224837474549 -6.1786272882748285 -8.053930973423677
H 2.909745919058877 -5.896543456515309 -6.610507604485732
O 3.245077288233393 9.254872998130029 -8.676623986138706
H 3.243031327925477 9.358007473082214 -9.640120976804871
H 2.443065884454227 8.742502753846832 -8.494370357145069
O -5.62468142015317 9.475203047377883 -4.337674042596942
H -4.841682061241379 9.264342859613443 -4.868161876632435
H -6.252768908880085 8.770726680794253 -4.557175978191696
O 6.696629429624945 8.982786341842596 -0.8627522464439458
H 6.6809813005494885 9.027958265424898 0.10507107951813988
H 7.45549204790804 9.532084477758826 -1.1104638302495493
O -3.5564192133042765 13.558662565162408 -0.8089965712846405
H -3.611661728105746 14.232203126194264 -0.1145480605199456
H -4.478267514621424 13.299846666103864 -0.9578991705003848
O 1.4011174225474088 -11.550906579548297 5.845429123075477
H 0.8773178838075459 -10.95589763311808 6.402713389661132
H 1.3607110843967876 -12.401221606042707 6.308347720514665
O 2.518452851453133 0.7596221655209163 -6.056499591513557
H 1.6472589624075964 1.1832401105189176 -6.03333925331685
H 3.1255933593783527 1.4569989015223566 -5.766658193469243
C 4.229212327786108 5.3839053038330995 8.523732014289097
O 4.58940102274228 4.275543168371101 8.796890828900462
O 3.869023632829935 6.492267439295099 8.25057319967773