146

C -5.3564454929577465 1.0091607042253532 -0.0734429577464788
C -4.079135492957747 0.16955070422535368 -0.19788295774647868
C -4.333545492957747 -1.2789292957746463 0.3017270422535212
C -3.1403854929577464 -2.1745492957746464 0.7330270422535212
C -2.905235492957746 0.902300704225353 0.41966704225352136
C -2.7423854929577463 1.056130704225354 1.8024770422535212
C -1.8861754929577463 1.3499307042253532 -0.4326129577464788
C -1.5304554929577463 1.5279207042253526 2.3254170422535214
H -3.5237954929577464 0.7301007042253529 2.484817042253521
C -0.6776454929577462 1.8010507042253527 0.08546704225352131
H -1.9759254929577463 1.2426607042253535 -1.5115229577464788
C -0.4680254929577463 1.8513207042253539 1.4698070422535212
H -1.3950654929577464 1.5446707042253527 3.404047042253521
H 0.1461845070422536 1.9972507042253538 -0.6030529577464789
C -1.8679654929577463 -2.0866092957746467 -0.08765295774647863
C -0.6628654929577462 -1.814079295774647 0.5787970422535212
C -1.8438954929577462 -2.213429295774647 -1.4808029577464787
C 0.5129345070422537 -1.5763292957746469 -0.13022295774647863
H -0.6401854929577462 -1.7032692957746463 1.6609470422535213
C -0.6547954929577462 -1.9962392957746466 -2.1933129577464787
H -2.7578654929577464 -2.4351492957746466 -2.026182957746479
C 0.5308845070422537 -1.645769295774647 -1.5261029577464789
H 1.4044045070422537 -1.2610992957746463 0.41551704225352126
H -0.6795654929577464 -2.0467992957746466 -3.2793129577464786
C 1.7843245070422535 -1.2521692957746469 -2.2771629577464787
H 1.4981245070422535 -0.9384492957746469 -3.290282957746479
H 2.241984507042254 -0.38631929577464685 -1.8135029577464787
C 0.9385645070422537 2.0647807042253534 1.9815670422535212
H 1.0508945070422537 1.5807407042253532 2.9609770422535213
H 1.6053245070422537 1.5496207042253536 1.3096170422535214
C 3.9676945070422533 -1.6881692957746468 -3.314052957746479
H 4.795084507042254 -2.398849295774647 -3.4044129577464783
H 3.548404507042253 -1.4816192957746468 -4.303802957746479
H 4.307714507042253 -0.7637192957746466 -2.851282957746479
C 2.344694507042253 -3.565079295774647 -3.101282957746479
H 1.6334345070422536 -4.047909295774646 -2.4251929577464786
H 1.8561845070422536 -3.293109295774647 -4.041792957746479
H 3.1808045070422537 -4.243519295774647 -3.298122957746479
C 3.5156645070422536 -2.648489295774647 -1.1110629577464786
H 3.9311845070422535 -1.748249295774647 -0.6771029577464787
H 2.767184507042254 -3.1044092957746465 -0.45972295774647876
H 4.319224507042254 -3.371819295774647 -1.2863129577464787
C 2.963994507042253 3.381090704225353 2.401027042253521
H 3.3337945070422537 4.369820704225353 2.6912870422535216
H 3.120994507042253 2.671350704225353 3.2183370422535216
H 3.4665445070422534 3.0664207042253535 1.4881370422535212
C 1.2973745070422538 4.282440704225354 0.8488370422535213
H 1.7592145070422538 3.7367207042253527 0.02653704225352116
H 0.23311450704225378 4.4484607042253534 0.6605570422535213
H 1.7921845070422535 5.251370704225354 0.9736770422535213
C 0.7724845070422537 4.194670704225353 3.2772470422535216
H -0.2956954929577462 4.278220704225354 3.057857042253521
H 0.9298945070422537 3.612620704225354 4.190337042253521
H 1.2046345070422537 5.193640704225353 3.3918370422535213
N 2.876084507042253 -2.324759295774647 -2.4576629577464786
N 1.4527845070422536 3.504690704225353 2.1388470422535213
C -3.593905492957746 -3.637819295774647 0.8297870422535213
H -2.8952554929577463 -1.8680692957746468 1.7595270422535212
H -5.022615492957747 -1.2402792957746467 1.1579970422535213
H -4.898275492957747 -1.7933092957746464 -0.48931295774647876
H -3.883675492957746 0.07871070422535364 -1.2758929577464788
H -3.8751654929577466 -4.038529295774646 -0.1505529577464788
H -4.4603554929577465 -3.7321892957746465 1.4932570422535212
H -2.7953554929577464 -4.271929295774647 1.2313670422535212
H -5.648775492957746 1.147700704225353 0.9733970422535213
H -6.189795492957747 0.5254307042253537 -0.5943629577464788
H -5.2178854929577465 2.002970704225354 -0.5139729577464787
C 3.6710445070422537 1.0263707042253536 -0.27764295774647874
O 2.7356545070422538 1.6631507042253526 -0.7327029577464788
O 3.650814507042253 0.3883007042253537 0.7790570422535212
O 4.756604507042254 0.8696707042253538 -0.8334829577464786
O -7.36511089983245 4.420130935829031 3.2862596522369354
H -7.416699775920317 4.472393894158929 2.3200430471474767
H -8.143197853112925 4.911871728628341 3.5891352539809755
O -9.644484768781524 8.860510608796563 4.5238244814841995
H -9.938150207017975 9.625167067694658 4.006109823442903
H -10.24341145382997 8.84957312996046 5.285486573092802
O 3.171326555023671 7.0490943583444565 -5.278770094613231
H 3.418194706778312 6.778443011186387 -4.381679619337314
H 3.8188128141245263 6.602323767332746 -5.844561158154028
O 0.747890415937321 -2.9027648553947 8.282357565227603
H -0.0828129612925892 -2.722274508436456 8.747462382030992
H 0.5126688377816437 -3.590426942683858 7.6414569433094535
O -3.951382832117248 -8.512866101246155 5.43922726585946
H -3.062769278458399 -8.515195441260529 5.052797604305264
H -4.328001654040036 -9.36259412266045 5.165215410464779
O -0.9035663929600123 -1.3565854776645119 7.549613876594225
H -1.1502240190246287 -0.4810770858590665 7.8836983393913025
H -1.1642610521347585 -1.333069964474328 6.6166362457706525
O -8.587238614880526 4.98032031353168 -4.84411441696356
H -8.996045262223056 4.1954349033282075 -4.449400121759691
H -7.845868070344389 4.6251489651123485 -5.357129985203146
O 7.711815118997068 -6.32180274705793 -0.23533685074455502
H 7.153051537701376 -5.9921203197826 -0.9551007802821925
H 7.204879553129333 -6.120422767500874 0.565552892098963
O -4.406678823358116 -9.418509625936299 -5.025828716860718
H -4.390686174261409 -9.372982303132341 -5.993629757856839
H -3.62933593701825 -8.907498315034823 -4.754595567176608
O -1.944812526498624 1.4090949724575488 5.934514458110572
H -2.536898746770073 2.1381744403545966 5.6960938336763
H -2.3202644486473676 0.6429097886355004 5.475212746219153
O 5.734499281585219 10.937323300634425 4.135137930754785
H 5.400607973651486 11.173885157062793 5.013501431515982
H 4.979283578973327 10.508508563739142 3.705336688027573
O 6.551804169328323 -2.787084163760004 -2.192861051632712
H 5.913313972913284 -2.188443975393201 -2.608706636981463
H 7.08836758207649 -2.2052942694446482 -1.633770569445287
O 10.885963875742664 -1.1800814272819284 -0.01932005720786023
H 11.36297274618672 -2.010926693242899 0.12602793365520704
H 11.585115662305263 -0.5419547254879906 -0.22654707307190236
O -0.46155035944254674 9.809177344977979 -3.1563441168057293
H -0.331569438958895 10.044426083359602 -4.087327654952393
H -0.8289240573891474 10.613825908109671 -2.760693765855373
O -3.7082169824429925 -8.850346476359828 0.5147928963299488
H -3.4692177643126914 -8.071571757157203 -0.009951486549922173
H -3.463308388938038 -8.606717462310272 1.420125226825589
O -3.5794741649443513 6.777067774350862 0.4539902997540468
H -3.2942642395127812 5.882188011683473 0.692344795628733
H -3.210557200219991 6.91215998933816 -0.43179314493680465
O 6.061417472322615 -2.0647147849470278 -12.81251463916262
H 5.62000354172827 -1.6928674204425054 -13.590878716113949
H 6.399509552271795 -1.288098892614025 -12.341851866520201
O -11.527813286696086 -1.8854329713581022 6.408039241428464
H -12.401794334590292 -2.2309204071332536 6.171897511648959
H -10.96876604214878 -2.1283123953595524 5.654754628509293
O 10.654123808520806 -7.913779038719117 -2.032771953270238
H 10.764081599368424 -8.570398593798442 -2.7368510688668755
H 10.426044031519606 -8.44235531527152 -1.2533178625829953
O 2.58312974621074 10.18921311052209 -0.6995822470481365
H 3.1584628087703313 9.410452329627553 -0.6609704591287189
H 3.199291193871355 10.93089860656138 -0.7955491146730043
O -3.058016454840648 -12.639532243236976 3.4148716596492448
H -3.3996963964682205 -13.43269550506894 2.9754240353873094
H -2.1152556815822154 -12.635636196631017 3.1909321822764407
O -10.656428818468576 3.768429350280214 4.156730303973461
H -10.011070758701699 3.891060028007424 4.869079971253582
H -11.358516452520078 4.402925427352239 4.36517604413664
O 5.897316788027004 6.496630148699318 -11.062952240327144
H 5.9172884751938595 6.467418437401212 -12.03130918099249
H 5.219512795602873 7.159539369824804 -10.862714739591867
O 9.325985914141967 4.479619556300624 7.028239808848118
H 9.549040510624126 4.904558665209206 7.870047837800184
H 9.917288491207842 4.903469435414224 6.388181618813306
C -8.449922636642166 0.390642992367324 8.820050867177255
O -8.110418118118535 -0.22530877202300736 7.851465113025109
O -8.789427155165795 1.0065947567576554 9.788636621329397