146

C -5.3564454929577465 1.0091607042253532 -0.0734429577464788
C -4.079135492957747 0.16955070422535368 -0.19788295774647868
C -4.333545492957747 -1.2789292957746463 0.3017270422535212
C -3.1403854929577464 -2.1745492957746464 0.7330270422535212
C -2.905235492957746 0.902300704225353 0.41966704225352136
C -2.7423854929577463 1.056130704225354 1.8024770422535212
C -1.8861754929577463 1.3499307042253532 -0.4326129577464788
C -1.5304554929577463 1.5279207042253526 2.3254170422535214
H -3.5237954929577464 0.7301007042253529 2.484817042253521
C -0.6776454929577462 1.8010507042253527 0.08546704225352131
H -1.9759254929577463 1.2426607042253535 -1.5115229577464788
C -0.4680254929577463 1.8513207042253539 1.4698070422535212
H -1.3950654929577464 1.5446707042253527 3.404047042253521
H 0.1461845070422536 1.9972507042253538 -0.6030529577464789
C -1.8679654929577463 -2.0866092957746467 -0.08765295774647863
C -0.6628654929577462 -1.814079295774647 0.5787970422535212
C -1.8438954929577462 -2.213429295774647 -1.4808029577464787
C 0.5129345070422537 -1.5763292957746469 -0.13022295774647863
H -0.6401854929577462 -1.7032692957746463 1.6609470422535213
C -0.6547954929577462 -1.9962392957746466 -2.1933129577464787
H -2.7578654929577464 -2.4351492957746466 -2.026182957746479
C 0.5308845070422537 -1.645769295774647 -1.5261029577464789
H 1.4044045070422537 -1.2610992957746463 0.41551704225352126
H -0.6795654929577464 -2.0467992957746466 -3.2793129577464786
C 1.7843245070422535 -1.2521692957746469 -2.2771629577464787
H 1.4981245070422535 -0.9384492957746469 -3.290282957746479
H 2.241984507042254 -0.38631929577464685 -1.8135029577464787
C 0.9385645070422537 2.0647807042253534 1.9815670422535212
H 1.0508945070422537 1.5807407042253532 2.9609770422535213
H 1.6053245070422537 1.5496207042253536 1.3096170422535214
C 3.9676945070422533 -1.6881692957746468 -3.314052957746479
H 4.795084507042254 -2.398849295774647 -3.4044129577464783
H 3.548404507042253 -1.4816192957746468 -4.303802957746479
H 4.307714507042253 -0.7637192957746466 -2.851282957746479
C 2.344694507042253 -3.565079295774647 -3.101282957746479
H 1.6334345070422536 -4.047909295774646 -2.4251929577464786
H 1.8561845070422536 -3.293109295774647 -4.041792957746479
H 3.1808045070422537 -4.243519295774647 -3.298122957746479
C 3.5156645070422536 -2.648489295774647 -1.1110629577464786
H 3.9311845070422535 -1.748249295774647 -0.6771029577464787
H 2.767184507042254 -3.1044092957746465 -0.45972295774647876
H 4.319224507042254 -3.371819295774647 -1.2863129577464787
C 2.963994507042253 3.381090704225353 2.401027042253521
H 3.3337945070422537 4.369820704225353 2.6912870422535216
H 3.120994507042253 2.671350704225353 3.2183370422535216
H 3.4665445070422534 3.0664207042253535 1.4881370422535212
C 1.2973745070422538 4.282440704225354 0.8488370422535213
H 1.7592145070422538 3.7367207042253527 0.02653704225352116
H 0.23311450704225378 4.4484607042253534 0.6605570422535213
H 1.7921845070422535 5.251370704225354 0.9736770422535213
C 0.7724845070422537 4.194670704225353 3.2772470422535216
H -0.2956954929577462 4.278220704225354 3.057857042253521
H 0.9298945070422537 3.612620704225354 4.190337042253521
H 1.2046345070422537 5.193640704225353 3.3918370422535213
N 2.876084507042253 -2.324759295774647 -2.4576629577464786
N 1.4527845070422536 3.504690704225353 2.1388470422535213
C -3.593905492957746 -3.637819295774647 0.8297870422535213
H -2.8952554929577463 -1.8680692957746468 1.7595270422535212
H -5.022615492957747 -1.2402792957746467 1.1579970422535213
H -4.898275492957747 -1.7933092957746464 -0.48931295774647876
H -3.883675492957746 0.07871070422535364 -1.2758929577464788
H -3.8751654929577466 -4.038529295774646 -0.1505529577464788
H -4.4603554929577465 -3.7321892957746465 1.4932570422535212
H -2.7953554929577464 -4.271929295774647 1.2313670422535212
H -5.648775492957746 1.147700704225353 0.9733970422535213
H -6.189795492957747 0.5254307042253537 -0.5943629577464788
H -5.2178854929577465 2.002970704225354 -0.5139729577464787
C 3.6710445070422537 1.0263707042253536 -0.27764295774647874
O 2.7356545070422538 1.6631507042253526 -0.7327029577464788
O 3.650814507042253 0.3883007042253537 0.7790570422535212
O 4.756604507042254 0.8696707042253538 -0.8334829577464786
O 4.258721540592518 4.730338261762187 -11.574335938887273
H 4.1155548617554905 3.792382162823201 -11.37758987047945
H 4.663447551385923 4.725690673752013 -12.45475470311992
O -0.23156863509341186 -6.664252310553493 6.017681266631841
H -0.9541952448394384 -6.301360166275163 6.551617059970367
H -0.6685401843335137 -7.305540344532741 5.437364571257895
O 6.092539499772473 -5.805306446187884 -11.310650842517028
H 6.367788434212217 -5.404495778573118 -12.148837092533093
H 5.324072751968291 -6.344715579601672 -11.550356054410816
O -4.639561184121471 5.706277090643059 8.854840592562036
H -3.9634448399735387 6.35739918132789 8.614270292860986
H -4.391577451872056 4.915136316549288 8.353280737304502
O -7.736232766894015 -10.942078856497757 5.419289649620466
H -7.4385622227159685 -10.946400427017062 4.497150328228631
H -8.130715593637436 -11.81859755561879 5.542009712347348
O -6.14383950772163 0.5737115506407433 -11.688776258568286
H -6.1620671509802 -0.18730782359398757 -11.089205894090005
H -6.840485778591451 0.38016109395852204 -12.333899609797546
O -2.5381809052830713 6.145711306811176 -8.19211464471102
H -1.8892630477491332 5.428482571701949 -8.250901655242101
H -3.037823962320526 6.0776990868959055 -9.019576485400043
O -7.5108319864312305 -8.69976616858101 -5.581679055186049
H -7.615469819606406 -9.31538317156865 -6.3226473314306695
H -6.674127315635981 -8.248269216215732 -5.7688627622074575
O 9.733270577150508 1.6334203033453054 7.96317758246582
H 10.447706897451626 1.5974977000780912 7.309528083338723
H 9.301001457780734 2.483392200953367 7.790976751992121
O -6.90237856607426 3.5017045012027 -5.32677607343431
H -7.225594606705938 3.4687161625916825 -6.239689277136648
H -7.694216866232727 3.7015054363558964 -4.805207633999889
O -1.1505181092205534 -0.17203241621875665 -7.601982916101729
H -1.479352344169138 0.223847765753864 -6.78093828616551
H -0.3451224404351918 0.3299594104257132 -7.797696908917594
O 5.6163865372447725 8.432769333653304 -2.3627423850152303
H 5.190217339642355 8.796238647127268 -3.1534618232976577
H 4.88193937561159 8.28425613448433 -1.748337680653717
O 0.6544714031244516 -4.269410805909023 8.780136428498869
H 0.9211901380000502 -4.36303595300703 7.853280018261968
H 1.2599228877946365 -4.855719421687956 9.258291895971592
O 1.0498370589848953 5.116293240048016 13.400321440416153
H 1.8843810188881371 5.080206779919189 13.891444137187936
H 0.5212874294388 5.768293842234547 13.884565643432655
O -2.6159644355296012 -6.858190439873283 -1.2676536437590573
H -2.7585016208541147 -7.31732846888756 -2.1089875715265367
H -1.7634323262009237 -6.412924458700579 -1.38550589394506
O 8.144670514002112 -5.426783461696174 -0.6198060950933799
H 8.146614087273754 -5.603919914018434 0.3328671210104539
H 8.834391317733598 -6.011586575469371 -0.9680193563588942
O -1.4407354438843418 13.06091915853686 5.800999113986532
H -1.5767643009568992 12.910175820129862 4.853507714094455
H -1.798629117230126 13.948911715552068 5.950475806365815
O -1.109581915214315 3.1152454734239656 -4.781525442016022
H -0.14949564126930096 2.9889328434074276 -4.816835822652405
H -1.40255907111299 2.4930907129811777 -4.098847051791241
O 3.2192132101789586 -12.576330734735578 -8.684987353349811
H 3.573759881672321 -12.589973152760177 -9.586695675959412
H 2.6921052929993134 -11.763867438432158 -8.653009546884757
O 4.410571176217648 -8.67053915477063 10.146078738061458
H 5.172687785143491 -8.556783212530332 10.733620410544694
H 4.772792283462944 -8.517144836364077 9.26051225447788
O -1.08984048692724 -5.581099938060947 -8.671477411850184
H -1.0680683635477242 -5.652845046094075 -9.637575735529955
H -0.3358231611676532 -6.115409044844834 -8.380043722716337
O -4.420826383463828 -4.609634289762258 5.181189192622096
H -4.118197670970556 -4.483701854287514 4.26930968250573
H -4.945278122725239 -5.4235680806316875 5.1434519223630835
O -2.042452904548596 -3.874437458749792 -7.040419499017344
H -1.937435083388074 -3.9169926420440984 -8.00277477151991
H -2.79658903185179 -3.279378690685215 -6.913353735156227
O 0.5470796514776706 8.66813386026652 -5.08695537400936
H 0.9110591942262425 8.750664388381699 -5.981200844386242
H 1.1498357298547934 8.051499980616711 -4.644903665781176
C 8.024681824727564 2.326879843143215 -4.304410916500457
O 8.27083667724783 1.9073742916055145 -3.2106828250125514
O 7.778526972207299 2.7463853946809156 -5.398139007988362