146

C -5.3564454929577465 1.0091607042253532 -0.0734429577464788
C -4.079135492957747 0.16955070422535368 -0.19788295774647868
C -4.333545492957747 -1.2789292957746463 0.3017270422535212
C -3.1403854929577464 -2.1745492957746464 0.7330270422535212
C -2.905235492957746 0.902300704225353 0.41966704225352136
C -2.7423854929577463 1.056130704225354 1.8024770422535212
C -1.8861754929577463 1.3499307042253532 -0.4326129577464788
C -1.5304554929577463 1.5279207042253526 2.3254170422535214
H -3.5237954929577464 0.7301007042253529 2.484817042253521
C -0.6776454929577462 1.8010507042253527 0.08546704225352131
H -1.9759254929577463 1.2426607042253535 -1.5115229577464788
C -0.4680254929577463 1.8513207042253539 1.4698070422535212
H -1.3950654929577464 1.5446707042253527 3.404047042253521
H 0.1461845070422536 1.9972507042253538 -0.6030529577464789
C -1.8679654929577463 -2.0866092957746467 -0.08765295774647863
C -0.6628654929577462 -1.814079295774647 0.5787970422535212
C -1.8438954929577462 -2.213429295774647 -1.4808029577464787
C 0.5129345070422537 -1.5763292957746469 -0.13022295774647863
H -0.6401854929577462 -1.7032692957746463 1.6609470422535213
C -0.6547954929577462 -1.9962392957746466 -2.1933129577464787
H -2.7578654929577464 -2.4351492957746466 -2.026182957746479
C 0.5308845070422537 -1.645769295774647 -1.5261029577464789
H 1.4044045070422537 -1.2610992957746463 0.41551704225352126
H -0.6795654929577464 -2.0467992957746466 -3.2793129577464786
C 1.7843245070422535 -1.2521692957746469 -2.2771629577464787
H 1.4981245070422535 -0.9384492957746469 -3.290282957746479
H 2.241984507042254 -0.38631929577464685 -1.8135029577464787
C 0.9385645070422537 2.0647807042253534 1.9815670422535212
H 1.0508945070422537 1.5807407042253532 2.9609770422535213
H 1.6053245070422537 1.5496207042253536 1.3096170422535214
C 3.9676945070422533 -1.6881692957746468 -3.314052957746479
H 4.795084507042254 -2.398849295774647 -3.4044129577464783
H 3.548404507042253 -1.4816192957746468 -4.303802957746479
H 4.307714507042253 -0.7637192957746466 -2.851282957746479
C 2.344694507042253 -3.565079295774647 -3.101282957746479
H 1.6334345070422536 -4.047909295774646 -2.4251929577464786
H 1.8561845070422536 -3.293109295774647 -4.041792957746479
H 3.1808045070422537 -4.243519295774647 -3.298122957746479
C 3.5156645070422536 -2.648489295774647 -1.1110629577464786
H 3.9311845070422535 -1.748249295774647 -0.6771029577464787
H 2.767184507042254 -3.1044092957746465 -0.45972295774647876
H 4.319224507042254 -3.371819295774647 -1.2863129577464787
C 2.963994507042253 3.381090704225353 2.401027042253521
H 3.3337945070422537 4.369820704225353 2.6912870422535216
H 3.120994507042253 2.671350704225353 3.2183370422535216
H 3.4665445070422534 3.0664207042253535 1.4881370422535212
C 1.2973745070422538 4.282440704225354 0.8488370422535213
H 1.7592145070422538 3.7367207042253527 0.02653704225352116
H 0.23311450704225378 4.4484607042253534 0.6605570422535213
H 1.7921845070422535 5.251370704225354 0.9736770422535213
C 0.7724845070422537 4.194670704225353 3.2772470422535216
H -0.2956954929577462 4.278220704225354 3.057857042253521
H 0.9298945070422537 3.612620704225354 4.190337042253521
H 1.2046345070422537 5.193640704225353 3.3918370422535213
N 2.876084507042253 -2.324759295774647 -2.4576629577464786
N 1.4527845070422536 3.504690704225353 2.1388470422535213
C -3.593905492957746 -3.637819295774647 0.8297870422535213
H -2.8952554929577463 -1.8680692957746468 1.7595270422535212
H -5.022615492957747 -1.2402792957746467 1.1579970422535213
H -4.898275492957747 -1.7933092957746464 -0.48931295774647876
H -3.883675492957746 0.07871070422535364 -1.2758929577464788
H -3.8751654929577466 -4.038529295774646 -0.1505529577464788
H -4.4603554929577465 -3.7321892957746465 1.4932570422535212
H -2.7953554929577464 -4.271929295774647 1.2313670422535212
H -5.648775492957746 1.147700704225353 0.9733970422535213
H -6.189795492957747 0.5254307042253537 -0.5943629577464788
H -5.2178854929577465 2.002970704225354 -0.5139729577464787
C 3.6710445070422537 1.0263707042253536 -0.27764295774647874
O 2.7356545070422538 1.6631507042253526 -0.7327029577464788
O 3.650814507042253 0.3883007042253537 0.7790570422535212
O 4.756604507042254 0.8696707042253538 -0.8334829577464786
O 10.29576755504406 1.9372614191924713 4.981166979918431
H 10.281683044736482 1.8911318127139358 5.948969151271406
H 10.099697787948088 1.0306816271694803 4.700753586111216
O -7.376447513846495 7.06712280367907 -10.66220082259262
H -8.32902292750585 7.240150467839921 -10.702560030052005
H -7.272727667707403 6.220213877650617 -11.12149311387369
O -10.476689920515827 0.10741315072600488 1.457478057375825
H -10.60302728076173 1.0671129987078598 1.4129535687240393
H -11.354491912567589 -0.25353106875546416 1.2621709211189183
O 6.0714363775773545 3.3132054017343986 -7.297293569434585
H 5.941035528392158 3.1393905159879156 -8.241619445880167
H 5.221968872222639 3.677999092745737 -7.006961923476444
O -1.1417726699882085 8.8240985950944 3.691466661978799
H -0.9263419591616209 9.684728675317517 4.081175310520122
H -1.8658170990227045 9.019648688695222 3.07788555896403
O -11.572595773451113 -2.6669932225038595 -4.964725415850821
H -11.366793775103309 -3.3645169194475093 -5.605095298479692
H -11.456321046786973 -3.097387266955934 -4.10437484850088
O -7.333949065147256 1.5051683629080284 6.146096988853084
H -7.493405020364537 1.491159828863676 5.19040618309022
H -7.875357771617506 0.7762192585630632 6.484433744368773
O -8.08892620953755 -0.1956863953932483 -0.3640388347757304
H -9.014376477425303 -0.336172563221443 -0.6145838311644698
H -7.586925708599415 -0.6369800770108329 -1.0656208527339013
O 1.690305768042447 8.458712745753097 -2.9617311651053253
H 0.9407213270019184 9.006057307763943 -3.2401273811125044
H 2.467159405339056 8.982427041517994 -3.2090845700354063
O 9.953639878056213 2.548387546300197 -2.397352339000169
H 9.336166440835642 2.4226456206067146 -3.1334792841325356
H 10.241107937553425 3.469344775293338 -2.487695249259817
O -3.174972286985554 -4.337558884148551 -7.386265961662083
H -3.9865119856559286 -4.827219035625189 -7.184762585913994
H -2.8222036934514465 -4.782224828951422 -8.1716247721739
O 5.975145552020629 -4.542577103488948 4.171850287407505
H 6.180835919701792 -3.9059304934882806 3.470893852585877
H 6.809774938989799 -5.014624569244824 4.311589046457819
O 2.589397108077043 1.81432726790676 -6.833814251485353
H 3.5279038042136417 2.051618423878905 -6.877005054952885
H 2.2405397016229847 2.0810662973503034 -7.6975912738896675
O -4.626583069591862 0.5141166081095981 -8.632021074371508
H -4.696054778487231 0.5535196868040747 -7.666314889265212
H -3.860519919189365 1.0718806166293524 -8.834526641444056
O 1.477269899639011 -8.302485565087427 10.351747357006449
H 1.2328758998787341 -8.465884495603754 11.275078131586877
H 0.7164565391969457 -8.627427494683563 9.8472300458434
O -7.58590195732415 -6.758245645984719 5.24564651785783
H -6.629803006833563 -6.9045860986330005 5.304183904966367
H -7.755794960302636 -6.058860730487756 5.894460090322416
O -5.53124124659329 3.8354299627319364 -6.715850626272454
H -5.428394607394519 3.9941035313308255 -7.666225617701423
H -4.629069929447592 3.659868975585945 -6.408886135472752
O 7.17351831094716 3.258759820603755 6.114206919029714
H 7.940161537326888 3.4778808558701755 6.6648533502810725
H 7.318857184975333 2.332777483501301 5.868452433067609
O -1.0017328377184715 -4.959986108447658 -2.0066398662967306
H -0.5734198870226198 -5.829009221883354 -1.9889141369537022
H -0.749309210897902 -4.592134253893598 -2.8668312810550325
O -6.2291587987394905 10.412410594133847 -3.0113921963014585
H -5.8793947154185595 11.136275378732067 -2.4704187990468056
H -5.588658095124999 10.329473491938293 -3.733778678766866
O 0.5317822076718257 -3.7578475711780612 3.070611695391975
H 0.27767739756148346 -3.557214309193452 3.9839267541554904
H -0.23073325140999812 -4.239192216939106 2.715873128333911
O 7.700644565800639 7.008726468966358 -6.796125715247813
H 8.096199776149149 7.044033696043037 -7.680013056588498
H 6.9022559115291795 6.473344822397938 -6.918207628520402
O 2.763491026873072 4.449619223345329 -2.2063434845146332
H 2.9191310411938645 4.2616579604373666 -3.144114302192529
H 2.79159200676036 3.577463349584434 -1.785016519920933
O -0.2054480241070733 -0.5781831679556244 -7.320215182918613
H 0.07593205302617578 0.3433306070851412 -7.217234740588017
H -0.6336316798823911 -0.7878331339628006 -6.476611251574008
C -0.2277280953340814 -6.930025631808906 -4.755756051808614
O 0.23646919717289966 -7.178231733901486 -5.830806218923245
O -0.6919253878410625 -6.681819529716328 -3.6807058846939817