146

C -5.3564454929577465 1.0091607042253532 -0.0734429577464788
C -4.079135492957747 0.16955070422535368 -0.19788295774647868
C -4.333545492957747 -1.2789292957746463 0.3017270422535212
C -3.1403854929577464 -2.1745492957746464 0.7330270422535212
C -2.905235492957746 0.902300704225353 0.41966704225352136
C -2.7423854929577463 1.056130704225354 1.8024770422535212
C -1.8861754929577463 1.3499307042253532 -0.4326129577464788
C -1.5304554929577463 1.5279207042253526 2.3254170422535214
H -3.5237954929577464 0.7301007042253529 2.484817042253521
C -0.6776454929577462 1.8010507042253527 0.08546704225352131
H -1.9759254929577463 1.2426607042253535 -1.5115229577464788
C -0.4680254929577463 1.8513207042253539 1.4698070422535212
H -1.3950654929577464 1.5446707042253527 3.404047042253521
H 0.1461845070422536 1.9972507042253538 -0.6030529577464789
C -1.8679654929577463 -2.0866092957746467 -0.08765295774647863
C -0.6628654929577462 -1.814079295774647 0.5787970422535212
C -1.8438954929577462 -2.213429295774647 -1.4808029577464787
C 0.5129345070422537 -1.5763292957746469 -0.13022295774647863
H -0.6401854929577462 -1.7032692957746463 1.6609470422535213
C -0.6547954929577462 -1.9962392957746466 -2.1933129577464787
H -2.7578654929577464 -2.4351492957746466 -2.026182957746479
C 0.5308845070422537 -1.645769295774647 -1.5261029577464789
H 1.4044045070422537 -1.2610992957746463 0.41551704225352126
H -0.6795654929577464 -2.0467992957746466 -3.2793129577464786
C 1.7843245070422535 -1.2521692957746469 -2.2771629577464787
H 1.4981245070422535 -0.9384492957746469 -3.290282957746479
H 2.241984507042254 -0.38631929577464685 -1.8135029577464787
C 0.9385645070422537 2.0647807042253534 1.9815670422535212
H 1.0508945070422537 1.5807407042253532 2.9609770422535213
H 1.6053245070422537 1.5496207042253536 1.3096170422535214
C 3.9676945070422533 -1.6881692957746468 -3.314052957746479
H 4.795084507042254 -2.398849295774647 -3.4044129577464783
H 3.548404507042253 -1.4816192957746468 -4.303802957746479
H 4.307714507042253 -0.7637192957746466 -2.851282957746479
C 2.344694507042253 -3.565079295774647 -3.101282957746479
H 1.6334345070422536 -4.047909295774646 -2.4251929577464786
H 1.8561845070422536 -3.293109295774647 -4.041792957746479
H 3.1808045070422537 -4.243519295774647 -3.298122957746479
C 3.5156645070422536 -2.648489295774647 -1.1110629577464786
H 3.9311845070422535 -1.748249295774647 -0.6771029577464787
H 2.767184507042254 -3.1044092957746465 -0.45972295774647876
H 4.319224507042254 -3.371819295774647 -1.2863129577464787
C 2.963994507042253 3.381090704225353 2.401027042253521
H 3.3337945070422537 4.369820704225353 2.6912870422535216
H 3.120994507042253 2.671350704225353 3.2183370422535216
H 3.4665445070422534 3.0664207042253535 1.4881370422535212
C 1.2973745070422538 4.282440704225354 0.8488370422535213
H 1.7592145070422538 3.7367207042253527 0.02653704225352116
H 0.23311450704225378 4.4484607042253534 0.6605570422535213
H 1.7921845070422535 5.251370704225354 0.9736770422535213
C 0.7724845070422537 4.194670704225353 3.2772470422535216
H -0.2956954929577462 4.278220704225354 3.057857042253521
H 0.9298945070422537 3.612620704225354 4.190337042253521
H 1.2046345070422537 5.193640704225353 3.3918370422535213
N 2.876084507042253 -2.324759295774647 -2.4576629577464786
N 1.4527845070422536 3.504690704225353 2.1388470422535213
C -3.593905492957746 -3.637819295774647 0.8297870422535213
H -2.8952554929577463 -1.8680692957746468 1.7595270422535212
H -5.022615492957747 -1.2402792957746467 1.1579970422535213
H -4.898275492957747 -1.7933092957746464 -0.48931295774647876
H -3.883675492957746 0.07871070422535364 -1.2758929577464788
H -3.8751654929577466 -4.038529295774646 -0.1505529577464788
H -4.4603554929577465 -3.7321892957746465 1.4932570422535212
H -2.7953554929577464 -4.271929295774647 1.2313670422535212
H -5.648775492957746 1.147700704225353 0.9733970422535213
H -6.189795492957747 0.5254307042253537 -0.5943629577464788
H -5.2178854929577465 2.002970704225354 -0.5139729577464787
C 3.6710445070422537 1.0263707042253536 -0.27764295774647874
O 2.7356545070422538 1.6631507042253526 -0.7327029577464788
O 3.650814507042253 0.3883007042253537 0.7790570422535212
O 4.756604507042254 0.8696707042253538 -0.8334829577464786
O 9.25503373654426 -5.472641900393996 -2.733624287074382
H 10.080644522302206 -5.051177770920671 -2.4513085508720973
H 8.786350122628473 -5.6484314705463525 -1.9039281732034743
O -2.253548060422095 -6.950182741751046 -6.242920630999721
H -2.3628763978197016 -7.057197501515547 -5.286070322573987
H -1.3069159554061662 -7.097566508385258 -6.388274087738198
O 6.631031743424391 2.407080123767997 5.635843399281008
H 6.9924293359645775 2.1415944379340863 6.494840772748154
H 5.724707376897341 2.6835581549088054 5.838569779497902
O 8.36086096728328 -9.216006017100735 -4.910164684334612
H 8.581080352074004 -9.325022141521776 -5.847494009640618
H 7.403288630451174 -9.360487866928192 -4.876368839851408
O 3.571202186342668 -3.7363591516157775 8.106533781047057
H 3.658655879990839 -3.914633361083073 9.054973296570376
H 2.9688656990723032 -4.427628407422627 7.793006244171838
O -8.074721038312454 1.8800248293555324 -2.0276074040577527
H -8.091332032858913 1.7425740105469716 -1.0685460378412657
H -7.73723661503148 2.7826933854401155 -2.128877765955401
O 11.221863719951944 0.988005715666878 8.143817418177548
H 11.27224430353135 0.0389294972861447 7.954916689215676
H 10.795786981333148 1.0313540774114434 9.01303630697486
O 6.230904458974223 -0.3995287389375375 -3.480484781067882
H 6.955364090503795 -0.40698147980376387 -4.123967535955391
H 6.1671655916020605 -1.3214816490411057 -3.189105075807416
O -3.663181924265758 8.089467946069572 9.220021242794829
H -3.79504676674249 8.166563571284877 10.176909577341364
H -3.345450475686342 8.96604424853366 8.956160186854367
O 2.251474753696348 -3.919379147457331 -6.993225242843348
H 2.1688408515264532 -3.89239319037498 -6.028129002444222
H 2.0299810691787057 -3.018286225478652 -7.272391927780368
O 8.523420076674993 -0.08201799334167492 -0.5173375966449748
H 8.348500171770127 -1.033716003528281 -0.5687309928640314
H 7.709024920779163 0.32396358394756153 -0.8503562646729842
O -4.0530146463704515 -4.244527153062669 -3.5179525678493375
H -4.910221512141848 -4.649005647839163 -3.719349919961327
H -3.4885055598096404 -4.511158345478797 -4.259032349466021
O 13.1036864766162 2.0053031529675214 -1.2176393505967864
H 12.633227378734823 2.239668900619633 -2.0317083221514753
H 13.613157974092264 1.2175593608316828 -1.4602510887937408
O -2.8680368591774865 -8.091863864645937 1.056107246852362
H -3.388121615554114 -7.808310411748769 0.2892456932230525
H -3.0612571998679097 -9.03828991760006 1.1329549568582968
O -14.730693170607895 0.26690666150148523 2.7788187247708476
H -15.238204553599358 0.6520363315384108 3.508938365851227
H -14.486672446405946 -0.6133672216889678 3.102135475083535
O 12.188396778205743 2.7781435688405747 -6.193045114878018
H 12.685290959833338 3.310477631790972 -6.832329069461085
H 11.681776184540759 2.162983324884848 -6.74429405377121
O 5.612496412437049 0.8715338395758134 11.007591707328388
H 6.256099113262179 0.811930142801181 11.729526828874222
H 6.039629270242599 1.4528902819170808 10.360641822846468
O 1.9663126772296577 -7.53607357381389 -2.934942878540916
H 1.858690323144184 -7.310671101351433 -1.9986851623062702
H 2.688705114909399 -8.181904240841819 -2.9386657550339472
O -0.20310044912195147 2.9972081581632333 6.935128677199082
H -0.2848815359354564 2.9529504386919596 7.899659892353266
H -0.3628816958862926 2.0866815143170387 6.64465814800788
O -9.339825577014375 2.0486370061543955 6.659863578549992
H -9.454680543114643 2.511227797960785 7.503537362069455
H -9.025829991739581 1.1685322573228407 6.916348174212352
O 1.1964482678911614 -6.786655398513819 0.6253217101661768
H 1.1531567408762338 -6.452073320803744 1.5336983027003126
H 1.8858032373514515 -7.4668143549273545 0.6590183626832018
O -1.6191006080876962 -8.723584412511098 -7.418100871056957
H -2.1640331841379896 -9.515974696052385 -7.299216544888412
H -2.0419612368908946 -8.257060204508411 -8.154650934702076
O 5.426986383708524 -6.053024318016803 2.8453128679753013
H 5.320908090757285 -5.506257712081006 3.6382574002712254
H 5.788746298390831 -6.886398983982956 3.1823267765233796
O 1.475207814748725 -9.196102995559478 1.806798511515784
H 2.2310731020311296 -9.681842153253653 1.443903905515581
H 0.7098037163353119 -9.58375649890315 1.3564172599329412
C -3.52527358856772 3.6251827201208404 11.686286378082745
O -3.588784515779376 4.812003880995311 11.828554264569071
O -3.4617626613560657 2.4383615592463674 11.544018491596418