146

C -5.3564454929577465 1.0091607042253532 -0.0734429577464788
C -4.079135492957747 0.16955070422535368 -0.19788295774647868
C -4.333545492957747 -1.2789292957746463 0.3017270422535212
C -3.1403854929577464 -2.1745492957746464 0.7330270422535212
C -2.905235492957746 0.902300704225353 0.41966704225352136
C -2.7423854929577463 1.056130704225354 1.8024770422535212
C -1.8861754929577463 1.3499307042253532 -0.4326129577464788
C -1.5304554929577463 1.5279207042253526 2.3254170422535214
H -3.5237954929577464 0.7301007042253529 2.484817042253521
C -0.6776454929577462 1.8010507042253527 0.08546704225352131
H -1.9759254929577463 1.2426607042253535 -1.5115229577464788
C -0.4680254929577463 1.8513207042253539 1.4698070422535212
H -1.3950654929577464 1.5446707042253527 3.404047042253521
H 0.1461845070422536 1.9972507042253538 -0.6030529577464789
C -1.8679654929577463 -2.0866092957746467 -0.08765295774647863
C -0.6628654929577462 -1.814079295774647 0.5787970422535212
C -1.8438954929577462 -2.213429295774647 -1.4808029577464787
C 0.5129345070422537 -1.5763292957746469 -0.13022295774647863
H -0.6401854929577462 -1.7032692957746463 1.6609470422535213
C -0.6547954929577462 -1.9962392957746466 -2.1933129577464787
H -2.7578654929577464 -2.4351492957746466 -2.026182957746479
C 0.5308845070422537 -1.645769295774647 -1.5261029577464789
H 1.4044045070422537 -1.2610992957746463 0.41551704225352126
H -0.6795654929577464 -2.0467992957746466 -3.2793129577464786
C 1.7843245070422535 -1.2521692957746469 -2.2771629577464787
H 1.4981245070422535 -0.9384492957746469 -3.290282957746479
H 2.241984507042254 -0.38631929577464685 -1.8135029577464787
C 0.9385645070422537 2.0647807042253534 1.9815670422535212
H 1.0508945070422537 1.5807407042253532 2.9609770422535213
H 1.6053245070422537 1.5496207042253536 1.3096170422535214
C 3.9676945070422533 -1.6881692957746468 -3.314052957746479
H 4.795084507042254 -2.398849295774647 -3.4044129577464783
H 3.548404507042253 -1.4816192957746468 -4.303802957746479
H 4.307714507042253 -0.7637192957746466 -2.851282957746479
C 2.344694507042253 -3.565079295774647 -3.101282957746479
H 1.6334345070422536 -4.047909295774646 -2.4251929577464786
H 1.8561845070422536 -3.293109295774647 -4.041792957746479
H 3.1808045070422537 -4.243519295774647 -3.298122957746479
C 3.5156645070422536 -2.648489295774647 -1.1110629577464786
H 3.9311845070422535 -1.748249295774647 -0.6771029577464787
H 2.767184507042254 -3.1044092957746465 -0.45972295774647876
H 4.319224507042254 -3.371819295774647 -1.2863129577464787
C 2.963994507042253 3.381090704225353 2.401027042253521
H 3.3337945070422537 4.369820704225353 2.6912870422535216
H 3.120994507042253 2.671350704225353 3.2183370422535216
H 3.4665445070422534 3.0664207042253535 1.4881370422535212
C 1.2973745070422538 4.282440704225354 0.8488370422535213
H 1.7592145070422538 3.7367207042253527 0.02653704225352116
H 0.23311450704225378 4.4484607042253534 0.6605570422535213
H 1.7921845070422535 5.251370704225354 0.9736770422535213
C 0.7724845070422537 4.194670704225353 3.2772470422535216
H -0.2956954929577462 4.278220704225354 3.057857042253521
H 0.9298945070422537 3.612620704225354 4.190337042253521
H 1.2046345070422537 5.193640704225353 3.3918370422535213
N 2.876084507042253 -2.324759295774647 -2.4576629577464786
N 1.4527845070422536 3.504690704225353 2.1388470422535213
C -3.593905492957746 -3.637819295774647 0.8297870422535213
H -2.8952554929577463 -1.8680692957746468 1.7595270422535212
H -5.022615492957747 -1.2402792957746467 1.1579970422535213
H -4.898275492957747 -1.7933092957746464 -0.48931295774647876
H -3.883675492957746 0.07871070422535364 -1.2758929577464788
H -3.8751654929577466 -4.038529295774646 -0.1505529577464788
H -4.4603554929577465 -3.7321892957746465 1.4932570422535212
H -2.7953554929577464 -4.271929295774647 1.2313670422535212
H -5.648775492957746 1.147700704225353 0.9733970422535213
H -6.189795492957747 0.5254307042253537 -0.5943629577464788
H -5.2178854929577465 2.002970704225354 -0.5139729577464787
C 3.6710445070422537 1.0263707042253536 -0.27764295774647874
O 2.7356545070422538 1.6631507042253526 -0.7327029577464788
O 3.650814507042253 0.3883007042253537 0.7790570422535212
O 4.756604507042254 0.8696707042253538 -0.8334829577464786
O 6.9699832814484 -1.9503989799417438 -0.8341584200119159
H 6.301613793353482 -2.4502083745435526 -1.326540541287165
H 6.451376363884663 -1.3365933114571051 -0.29263149483536965
O -7.709628525317779 0.33473901515663806 7.3882619767715605
H -7.91545766127617 0.4996496076390686 6.455842425186697
H -6.85501921542645 0.7720041040606223 7.520186628648525
O -11.678372577171073 3.792783677375753 10.864529356856956
H -11.597763855062396 3.9586623990107497 11.815819975190147
H -10.801443659943429 3.469986906819659 10.60809249650239
O 0.47687821819940357 -5.775287947299383 7.429821711925911
H 0.24321768967883495 -5.061404819520705 8.041982633730317
H 0.11877853366950486 -6.571208151723679 7.850817660159113
O -5.681617102474275 -13.193859954313492 1.509369454896356
H -4.993305643862799 -12.902065910795933 2.125852162692622
H -5.1905596424938665 -13.647492311507275 0.8079122574819988
O -0.3110868401197772 -3.7978202046465426 -10.413010062563087
H 0.554027558069476 -3.5182511218689894 -10.077770502098387
H -0.28449374901237845 -4.764532281742644 -10.351997672002675
O 7.18926865069 3.6779318489636283 -3.3328921628786596
H 7.11040957352119 3.0202746300626426 -4.040165508393325
H 7.990058172005227 4.17313174066504 -3.561966723034601
O 5.15870808903273 -7.982764084691074 -5.817305386127187
H 4.3377382529073225 -8.161461509328243 -5.334559992052561
H 5.769517838019502 -8.665283006709346 -5.501012300635691
O 11.217923046196557 2.496169941851419 3.3732475604378385
H 11.945844513121367 3.0141195780953667 3.7485152904717367
H 11.512415878736444 2.2976092550494878 2.4716880396410263
O 10.231415627677489 -6.526798976158364 -3.9093849585402025
H 9.728455344916057 -6.92835102125622 -3.1849857136881177
H 10.86004213462798 -7.217130100270096 -4.168679382201521
O -5.245378936670232 6.280327872250522 -4.171762656308707
H -4.292870814531365 6.188968340080979 -4.324566681259798
H -5.643835286679054 5.659564580300438 -4.800131510410294
O 0.2047456983503002 8.982959485905626 11.263690393476576
H -0.029202061765456033 9.148444562265253 12.189352584526349
H 1.0597426680408568 9.42596151212629 11.155563935639703
O 6.027382006650721 -0.1791577454563078 5.335177098425026
H 5.263828411950097 -0.5526881430122583 4.869958540087709
H 6.16493725204095 0.6794338648634466 4.907554665133502
O 10.125834760544715 -0.2261661900959422 -5.026919484671178
H 10.007565696489658 -0.46198195779076956 -4.094518975719128
H 10.404184051471857 0.7016109133145378 -5.000212501921077
O 8.311393937100135 11.543873364461264 -7.480935154658992
H 9.092013192735726 11.588031552258094 -8.053343216343517
H 8.623501665686737 11.069648261038623 -6.69565733035711
O -11.275546769402768 -0.7535112933844033 7.081142196698255
H -11.309177225184209 -1.5559707552578552 6.539021212605492
H -11.874516387313284 -0.14041231834441104 6.6291388914835245
O 3.9096575858531626 9.196035031991432 -7.995127306433083
H 3.95438823813748 9.145334870199276 -7.028485687610227
H 4.481734715701813 8.47334264427516 -8.294134688517682
O -1.1634858455734456 -5.54546536076682 10.933066190408319
H -1.8047801508942718 -6.086195367676809 10.44796823072368
H -1.108214394797025 -4.727772043271333 10.416070397821676
O -3.3959132079003087 -6.55235825448852 -12.68051454486435
H -3.548706207761287 -6.4013043365458415 -13.625397802186464
H -4.231530428919062 -6.293203260628644 -12.263927827127956
O 5.678938767937985 -10.675343220202146 5.635931891141412
H 6.536456444380143 -11.115515085010363 5.5365361119528504
H 5.510788769926244 -10.703064060919786 6.589828676678799
O -5.669807290475016 -0.9133147048915351 9.18213994121992
H -5.255519972782472 -1.082071694614319 10.041706374789088
H -5.5698766285112935 0.04246062518950078 9.057764197973993
O 3.236521497503479 -10.155190220184437 -0.8150365153415566
H 3.239301743922467 -10.37622289466212 0.12841681362765733
H 2.466673955793972 -9.575691669436274 -0.917399284474715
O 7.861676761750889 1.8542744504272808 0.321835522581128
H 7.0454283279740695 2.114472132708812 -0.1309370664657472
H 7.763492947204583 0.8989180534670487 0.45073873296899514
O -0.7326706679043324 12.49602276136368 0.043879149013607566
H -0.5971985140659699 12.486017623709483 1.0033136437316768
H 0.15538788211817423 12.360379174495897 -0.31932158525542675
C -0.516320076452611 -10.976633143503063 6.0429842640428015
O -0.31906942167069746 -10.57166424484869 4.933970906318571
O -0.713570731234525 -11.381602042157436 7.151997621767031