146

C -5.3564454929577465 1.0091607042253532 -0.0734429577464788
C -4.079135492957747 0.16955070422535368 -0.19788295774647868
C -4.333545492957747 -1.2789292957746463 0.3017270422535212
C -3.1403854929577464 -2.1745492957746464 0.7330270422535212
C -2.905235492957746 0.902300704225353 0.41966704225352136
C -2.7423854929577463 1.056130704225354 1.8024770422535212
C -1.8861754929577463 1.3499307042253532 -0.4326129577464788
C -1.5304554929577463 1.5279207042253526 2.3254170422535214
H -3.5237954929577464 0.7301007042253529 2.484817042253521
C -0.6776454929577462 1.8010507042253527 0.08546704225352131
H -1.9759254929577463 1.2426607042253535 -1.5115229577464788
C -0.4680254929577463 1.8513207042253539 1.4698070422535212
H -1.3950654929577464 1.5446707042253527 3.404047042253521
H 0.1461845070422536 1.9972507042253538 -0.6030529577464789
C -1.8679654929577463 -2.0866092957746467 -0.08765295774647863
C -0.6628654929577462 -1.814079295774647 0.5787970422535212
C -1.8438954929577462 -2.213429295774647 -1.4808029577464787
C 0.5129345070422537 -1.5763292957746469 -0.13022295774647863
H -0.6401854929577462 -1.7032692957746463 1.6609470422535213
C -0.6547954929577462 -1.9962392957746466 -2.1933129577464787
H -2.7578654929577464 -2.4351492957746466 -2.026182957746479
C 0.5308845070422537 -1.645769295774647 -1.5261029577464789
H 1.4044045070422537 -1.2610992957746463 0.41551704225352126
H -0.6795654929577464 -2.0467992957746466 -3.2793129577464786
C 1.7843245070422535 -1.2521692957746469 -2.2771629577464787
H 1.4981245070422535 -0.9384492957746469 -3.290282957746479
H 2.241984507042254 -0.38631929577464685 -1.8135029577464787
C 0.9385645070422537 2.0647807042253534 1.9815670422535212
H 1.0508945070422537 1.5807407042253532 2.9609770422535213
H 1.6053245070422537 1.5496207042253536 1.3096170422535214
C 3.9676945070422533 -1.6881692957746468 -3.314052957746479
H 4.795084507042254 -2.398849295774647 -3.4044129577464783
H 3.548404507042253 -1.4816192957746468 -4.303802957746479
H 4.307714507042253 -0.7637192957746466 -2.851282957746479
C 2.344694507042253 -3.565079295774647 -3.101282957746479
H 1.6334345070422536 -4.047909295774646 -2.4251929577464786
H 1.8561845070422536 -3.293109295774647 -4.041792957746479
H 3.1808045070422537 -4.243519295774647 -3.298122957746479
C 3.5156645070422536 -2.648489295774647 -1.1110629577464786
H 3.9311845070422535 -1.748249295774647 -0.6771029577464787
H 2.767184507042254 -3.1044092957746465 -0.45972295774647876
H 4.319224507042254 -3.371819295774647 -1.2863129577464787
C 2.963994507042253 3.381090704225353 2.401027042253521
H 3.3337945070422537 4.369820704225353 2.6912870422535216
H 3.120994507042253 2.671350704225353 3.2183370422535216
H 3.4665445070422534 3.0664207042253535 1.4881370422535212
C 1.2973745070422538 4.282440704225354 0.8488370422535213
H 1.7592145070422538 3.7367207042253527 0.02653704225352116
H 0.23311450704225378 4.4484607042253534 0.6605570422535213
H 1.7921845070422535 5.251370704225354 0.9736770422535213
C 0.7724845070422537 4.194670704225353 3.2772470422535216
H -0.2956954929577462 4.278220704225354 3.057857042253521
H 0.9298945070422537 3.612620704225354 4.190337042253521
H 1.2046345070422537 5.193640704225353 3.3918370422535213
N 2.876084507042253 -2.324759295774647 -2.4576629577464786
N 1.4527845070422536 3.504690704225353 2.1388470422535213
C -3.593905492957746 -3.637819295774647 0.8297870422535213
H -2.8952554929577463 -1.8680692957746468 1.7595270422535212
H -5.022615492957747 -1.2402792957746467 1.1579970422535213
H -4.898275492957747 -1.7933092957746464 -0.48931295774647876
H -3.883675492957746 0.07871070422535364 -1.2758929577464788
H -3.8751654929577466 -4.038529295774646 -0.1505529577464788
H -4.4603554929577465 -3.7321892957746465 1.4932570422535212
H -2.7953554929577464 -4.271929295774647 1.2313670422535212
H -5.648775492957746 1.147700704225353 0.9733970422535213
H -6.189795492957747 0.5254307042253537 -0.5943629577464788
H -5.2178854929577465 2.002970704225354 -0.5139729577464787
C 3.6710445070422537 1.0263707042253536 -0.27764295774647874
O 2.7356545070422538 1.6631507042253526 -0.7327029577464788
O 3.650814507042253 0.3883007042253537 0.7790570422535212
O 4.756604507042254 0.8696707042253538 -0.8334829577464786
O -14.375118528702611 -2.1879528321575954 1.402601785880508
H -15.10572006292414 -2.4034668661019074 0.8036506557653693
H -13.59745120562365 -2.1663836799041567 0.8249078785331401
O -2.093922480897466 13.437368407559974 -1.7830321719634694
H -1.7788279019709963 12.883107659696627 -2.5127429274064133
H -1.2830091725373416 13.808177548324846 -1.4037141895929297
O -3.986670598790639 9.604429714123897 2.9079158516562895
H -3.651832791067182 9.839876904198885 3.7862185444136
H -4.243506001953071 8.67433635806582 2.9969319681690645
O -0.0663550608549115 7.014900259150943 1.3913508865771398
H 0.7185756917559041 6.46975166470247 1.231150760245498
H -0.6236462180738149 6.856794105949634 0.6145684494008741
O 3.812202806159323 3.1883955755848232 -10.689989574096739
H 4.258458383120239 3.108274486984916 -9.833599518051688
H 4.134888834719772 2.426458061763416 -11.194258248816416
O -5.43594071398912 -1.0756723698858244 -7.667239883216516
H -4.8811335173083865 -1.1267524873489603 -8.460049540707658
H -6.111465717859572 -0.4197569455922334 -7.896156613971572
O -4.307687012220739 7.150894749686798 -4.075752149372633
H -3.7001351616805094 6.396154827691707 -4.09044078280087
H -5.114428597504474 6.794181071955551 -3.6746470372220497
O 0.9040503361198704 -0.6825579268935156 9.800056118907717
H 0.4281942104460974 -1.5177411972559018 9.92251921320774
H 0.922987890969837 -0.2917971904073926 10.686571409321326
O 6.411342110767845 6.557185670185428 11.641213121770221
H 5.675165677936129 6.653535949210952 12.263891401763088
H 5.9818209987693445 6.3181204071062425 10.806155423981348
O 0.6596510801682067 2.476338384420128 6.994641177224539
H 0.15926860665465892 2.786619118400013 7.764258356880353
H 1.0872039782990575 3.2769116115255734 6.65516662495017
O 2.098624233916494 -7.670616921758992 4.461598997882115
H 1.5791403493960572 -8.416765791261911 4.1263890410445
H 2.9909760781259216 -8.03408846928967 4.56435387402766
O -0.3555371146299158 2.320631872115029 -7.054068646430178
H -0.5464862330777038 2.258716827073958 -6.106085356355095
H -0.3662964340766376 3.2728530703613306 -7.233291889776069
O 6.39685547057103 -9.14559700484588 -5.434665024760818
H 6.2789136797637095 -9.170567241734368 -4.473190335467909
H 7.320447247914324 -8.876195906879765 -5.550264425877369
O -2.1669365089782353 8.144317030233669 3.2501233201665505
H -2.748047483461412 7.920971982980119 2.5075639743210316
H -2.6349342949798675 7.799666097326446 4.025465664582068
O -3.647005695506739 1.1825196975040095 5.772464093123666
H -2.8746078864199975 0.5986718566037972 5.733854766605797
H -4.246828967181099 0.7366643063665574 6.389219277334984
O -9.54645386098267 5.1311238614832195 -6.638580526061435
H -9.092181589604206 4.335765977307353 -6.954823939330297
H -8.860133028765917 5.616706826938749 -6.156776786739373
O -3.697927206216334 6.602460043816063 8.6182800417909
H -3.71328151689681 7.560849905240189 8.760478760360975
H -4.431531915822376 6.445037816419229 8.005088133278361
O -0.7579066943157553 -7.519712064070598 4.60504090969568
H -0.9393913829368317 -7.158761449355893 5.4858049634769355
H -0.4863314231481861 -6.747215351455575 4.086911924413787
O 9.871309307856757 6.880636679022272 -8.739978027090853
H 9.809747757662542 7.452833403728597 -9.519573076249731
H 9.00907980792139 6.439886264673075 -8.704463157075313
O -8.531197506594427 4.69329582207935 -10.601342857973673
H -8.769906008025309 4.651914303058807 -11.539571603071678
H -8.378319132921359 5.636477696301145 -10.440103596928045
O 2.194955977845348 8.355077993901368 8.899572025591468
H 2.6455870758641664 8.255025976823742 8.04758108416248
H 2.266459541981755 9.302003938470348 9.092394327512007
O 8.475147898411409 -7.708546403676889 -6.688255949014989
H 8.445592544195534 -6.76633319670456 -6.91259522454224
H 8.970538384078404 -7.735536779927141 -5.855896813424775
O -0.9103239278649724 -10.804910050081848 4.665711954595921
H -0.49629601747156205 -10.409689935497543 5.447600250545692
H -0.16503810958209897 -11.170200146675914 4.165637821394928
O -8.980520516480226 -3.063041039921515 -5.868389419251591
H -8.956126394761801 -3.079279100160201 -4.899829349289344
H -9.364799569133734 -2.198637352790948 -6.078384227917911
C 6.635996612937449 -1.275891597951131 -4.995362115330943
O 6.179256839612825 -0.6253919820648879 -4.1003440783645235
O 7.0927363862620725 -1.9263912138373738 -5.890380152297361