146

C -5.3564454929577465 1.0091607042253532 -0.0734429577464788
C -4.079135492957747 0.16955070422535368 -0.19788295774647868
C -4.333545492957747 -1.2789292957746463 0.3017270422535212
C -3.1403854929577464 -2.1745492957746464 0.7330270422535212
C -2.905235492957746 0.902300704225353 0.41966704225352136
C -2.7423854929577463 1.056130704225354 1.8024770422535212
C -1.8861754929577463 1.3499307042253532 -0.4326129577464788
C -1.5304554929577463 1.5279207042253526 2.3254170422535214
H -3.5237954929577464 0.7301007042253529 2.484817042253521
C -0.6776454929577462 1.8010507042253527 0.08546704225352131
H -1.9759254929577463 1.2426607042253535 -1.5115229577464788
C -0.4680254929577463 1.8513207042253539 1.4698070422535212
H -1.3950654929577464 1.5446707042253527 3.404047042253521
H 0.1461845070422536 1.9972507042253538 -0.6030529577464789
C -1.8679654929577463 -2.0866092957746467 -0.08765295774647863
C -0.6628654929577462 -1.814079295774647 0.5787970422535212
C -1.8438954929577462 -2.213429295774647 -1.4808029577464787
C 0.5129345070422537 -1.5763292957746469 -0.13022295774647863
H -0.6401854929577462 -1.7032692957746463 1.6609470422535213
C -0.6547954929577462 -1.9962392957746466 -2.1933129577464787
H -2.7578654929577464 -2.4351492957746466 -2.026182957746479
C 0.5308845070422537 -1.645769295774647 -1.5261029577464789
H 1.4044045070422537 -1.2610992957746463 0.41551704225352126
H -0.6795654929577464 -2.0467992957746466 -3.2793129577464786
C 1.7843245070422535 -1.2521692957746469 -2.2771629577464787
H 1.4981245070422535 -0.9384492957746469 -3.290282957746479
H 2.241984507042254 -0.38631929577464685 -1.8135029577464787
C 0.9385645070422537 2.0647807042253534 1.9815670422535212
H 1.0508945070422537 1.5807407042253532 2.9609770422535213
H 1.6053245070422537 1.5496207042253536 1.3096170422535214
C 3.9676945070422533 -1.6881692957746468 -3.314052957746479
H 4.795084507042254 -2.398849295774647 -3.4044129577464783
H 3.548404507042253 -1.4816192957746468 -4.303802957746479
H 4.307714507042253 -0.7637192957746466 -2.851282957746479
C 2.344694507042253 -3.565079295774647 -3.101282957746479
H 1.6334345070422536 -4.047909295774646 -2.4251929577464786
H 1.8561845070422536 -3.293109295774647 -4.041792957746479
H 3.1808045070422537 -4.243519295774647 -3.298122957746479
C 3.5156645070422536 -2.648489295774647 -1.1110629577464786
H 3.9311845070422535 -1.748249295774647 -0.6771029577464787
H 2.767184507042254 -3.1044092957746465 -0.45972295774647876
H 4.319224507042254 -3.371819295774647 -1.2863129577464787
C 2.963994507042253 3.381090704225353 2.401027042253521
H 3.3337945070422537 4.369820704225353 2.6912870422535216
H 3.120994507042253 2.671350704225353 3.2183370422535216
H 3.4665445070422534 3.0664207042253535 1.4881370422535212
C 1.2973745070422538 4.282440704225354 0.8488370422535213
H 1.7592145070422538 3.7367207042253527 0.02653704225352116
H 0.23311450704225378 4.4484607042253534 0.6605570422535213
H 1.7921845070422535 5.251370704225354 0.9736770422535213
C 0.7724845070422537 4.194670704225353 3.2772470422535216
H -0.2956954929577462 4.278220704225354 3.057857042253521
H 0.9298945070422537 3.612620704225354 4.190337042253521
H 1.2046345070422537 5.193640704225353 3.3918370422535213
N 2.876084507042253 -2.324759295774647 -2.4576629577464786
N 1.4527845070422536 3.504690704225353 2.1388470422535213
C -3.593905492957746 -3.637819295774647 0.8297870422535213
H -2.8952554929577463 -1.8680692957746468 1.7595270422535212
H -5.022615492957747 -1.2402792957746467 1.1579970422535213
H -4.898275492957747 -1.7933092957746464 -0.48931295774647876
H -3.883675492957746 0.07871070422535364 -1.2758929577464788
H -3.8751654929577466 -4.038529295774646 -0.1505529577464788
H -4.4603554929577465 -3.7321892957746465 1.4932570422535212
H -2.7953554929577464 -4.271929295774647 1.2313670422535212
H -5.648775492957746 1.147700704225353 0.9733970422535213
H -6.189795492957747 0.5254307042253537 -0.5943629577464788
H -5.2178854929577465 2.002970704225354 -0.5139729577464787
C 3.6710445070422537 1.0263707042253536 -0.27764295774647874
O 2.7356545070422538 1.6631507042253526 -0.7327029577464788
O 3.650814507042253 0.3883007042253537 0.7790570422535212
O 4.756604507042254 0.8696707042253538 -0.8334829577464786
O 6.004658528105065 -12.152397499703792 4.317077530217814
H 6.06736042873289 -12.044758134403503 5.278040378404679
H 5.928149927364267 -11.24549076303288 3.984468827244486
O -12.685533833359855 7.362608983364163 0.27430450943929774
H -13.377835022199541 7.718412231677217 -0.3028353950215168
H -12.429897156814773 6.530879516755058 -0.15212007742116462
O 9.934828599157317 7.300424744881828 1.326373312877812
H 10.290928501455792 7.88985500589802 2.0080859971381257
H 10.461379583344652 6.492095833547361 1.417534579061328
O 9.181620846644808 -5.642770741002608 -0.682457629026235
H 8.666214655745057 -6.382294391377567 -1.038025605394055
H 9.026387088981805 -4.924308355367138 -1.3138657579007456
O 0.42391806300244617 -11.591115272261481 -3.9247200372994993
H 0.2133263605486435 -12.481060454000405 -4.245057461365568
H -0.07818975612834933 -11.006133429069912 -4.511785557836951
O 6.0440100712382545 9.274424925051104 9.061282386014579
H 6.210763606564553 10.212424468379469 9.238249818249894
H 6.263270183492365 9.170646436380252 8.123136889429157
O 4.4525187117889224 11.546475389124353 3.062995301799088
H 5.0066853326304335 12.228689611935502 3.470978717441545
H 4.854634052810435 11.408084934721169 2.1922982942555733
O 2.1907666255481466 -13.095611949369246 -2.908751741862007
H 2.8059721012417334 -13.791117572457686 -3.1858104140399184
H 2.652742074684771 -12.272932088713311 -3.129519664274081
O 11.736815873408112 0.026522920924602733 3.905808619224665
H 11.687733000295914 0.2697480021677876 2.9691124100291217
H 11.184740257506308 0.6883428660187398 4.348718112126134
O -6.903020234844717 -0.8712715395354094 -7.411769336123006
H -6.288235697959955 -0.16309183222099888 -7.655672661757298
H -6.427422433648359 -1.683607446777121 -7.6417237872714345
O -13.735820911581307 -3.9904787713553906 6.814204662836798
H -14.619485004825565 -4.048244968183526 6.420798773563629
H -13.707586179342451 -3.100580791140512 7.196626326716972
O -0.6300494842754266 4.151645429212274 4.938235130220848
H -0.8983354742835793 3.5757304984594502 4.206584956298012
H -1.0307087370132162 3.7404231331289886 5.718831268245874
O 8.46575314751111 -0.533107337690719 -4.942265289153389
H 8.03408558573737 -0.07799470718341775 -4.203683562758103
H 9.377541271515987 -0.20597316621889722 -4.918024928613399
O 10.272714232263128 0.8893581262150565 -3.3643122378850423
H 10.156285796496721 0.6968481696239399 -2.4217881305762297
H 11.061197692926376 1.4518996046352237 -3.39264705070185
O 2.8007194375860345 -6.989554163547857 10.209938426719397
H 1.8881355329835618 -6.899746639948747 9.89674107253916
H 2.7840156434653753 -7.792162406770267 10.752619673376596
O 6.188550378642262 3.6303403992277525 -7.180630050917227
H 6.92677651901847 4.165480951451375 -7.50867595003966
H 5.977969541321917 3.0426922301457355 -7.921769231252483
O 10.962675156474884 8.793219971333746 -4.549912407038799
H 11.684025476575522 9.20634610647694 -4.051968766601096
H 10.95468381616261 7.877244693339244 -4.233862770299718
O -0.5074571152957272 2.478486519718568 9.679935335830688
H -0.5810263765905272 1.5891263230425476 10.057550697357373
H -0.9586648172083723 2.4079583503893227 8.825301302243345
O 4.821731415707218 -4.571488319324823 6.56764853207778
H 4.878521764806993 -4.620304187720174 7.533753714830639
H 4.485977025064074 -5.442766174704155 6.3086005979238085
O -10.526949333650295 -5.41165941892522 -3.7104111270339866
H -10.571593348222281 -6.172697832391885 -3.1122516147874273
H -9.577093869784157 -5.274949344717882 -3.844749869300937
O 4.508789802957843 8.645178514425604 -0.378611714353402
H 4.318590866043197 8.87209402502138 0.5440480671194865
H 5.1607537929476415 7.931185603203868 -0.31443210091039786
O -10.923704806622814 0.33300956177963337 2.7994707514373043
H -11.483105956549823 -0.14624043033938494 3.429039774987751
H -10.632336172401523 1.11439457730628 3.292931713218923
O 2.877847380018289 1.850868779881898 4.506916274064337
H 3.090525537904577 1.4636046701071308 5.369332569909014
H 1.9631884902970227 2.1550510030097714 4.606083984972905
O 6.930382838403249 4.377932635205136 9.712747518469065
H 6.818909196902748 4.902180808627674 8.905465141098079
H 6.89730786887376 3.4605356390161566 9.402504481360962
C 1.052613014804436 -7.929787806863825 -2.5820484345295047
O 0.7526220459106727 -6.940354460636384 -3.185244363938308
O 1.3526039836981996 -8.919221153091266 -1.9788525051207015