146

C -5.3564454929577465 1.0091607042253532 -0.0734429577464788
C -4.079135492957747 0.16955070422535368 -0.19788295774647868
C -4.333545492957747 -1.2789292957746463 0.3017270422535212
C -3.1403854929577464 -2.1745492957746464 0.7330270422535212
C -2.905235492957746 0.902300704225353 0.41966704225352136
C -2.7423854929577463 1.056130704225354 1.8024770422535212
C -1.8861754929577463 1.3499307042253532 -0.4326129577464788
C -1.5304554929577463 1.5279207042253526 2.3254170422535214
H -3.5237954929577464 0.7301007042253529 2.484817042253521
C -0.6776454929577462 1.8010507042253527 0.08546704225352131
H -1.9759254929577463 1.2426607042253535 -1.5115229577464788
C -0.4680254929577463 1.8513207042253539 1.4698070422535212
H -1.3950654929577464 1.5446707042253527 3.404047042253521
H 0.1461845070422536 1.9972507042253538 -0.6030529577464789
C -1.8679654929577463 -2.0866092957746467 -0.08765295774647863
C -0.6628654929577462 -1.814079295774647 0.5787970422535212
C -1.8438954929577462 -2.213429295774647 -1.4808029577464787
C 0.5129345070422537 -1.5763292957746469 -0.13022295774647863
H -0.6401854929577462 -1.7032692957746463 1.6609470422535213
C -0.6547954929577462 -1.9962392957746466 -2.1933129577464787
H -2.7578654929577464 -2.4351492957746466 -2.026182957746479
C 0.5308845070422537 -1.645769295774647 -1.5261029577464789
H 1.4044045070422537 -1.2610992957746463 0.41551704225352126
H -0.6795654929577464 -2.0467992957746466 -3.2793129577464786
C 1.7843245070422535 -1.2521692957746469 -2.2771629577464787
H 1.4981245070422535 -0.9384492957746469 -3.290282957746479
H 2.241984507042254 -0.38631929577464685 -1.8135029577464787
C 0.9385645070422537 2.0647807042253534 1.9815670422535212
H 1.0508945070422537 1.5807407042253532 2.9609770422535213
H 1.6053245070422537 1.5496207042253536 1.3096170422535214
C 3.9676945070422533 -1.6881692957746468 -3.314052957746479
H 4.795084507042254 -2.398849295774647 -3.4044129577464783
H 3.548404507042253 -1.4816192957746468 -4.303802957746479
H 4.307714507042253 -0.7637192957746466 -2.851282957746479
C 2.344694507042253 -3.565079295774647 -3.101282957746479
H 1.6334345070422536 -4.047909295774646 -2.4251929577464786
H 1.8561845070422536 -3.293109295774647 -4.041792957746479
H 3.1808045070422537 -4.243519295774647 -3.298122957746479
C 3.5156645070422536 -2.648489295774647 -1.1110629577464786
H 3.9311845070422535 -1.748249295774647 -0.6771029577464787
H 2.767184507042254 -3.1044092957746465 -0.45972295774647876
H 4.319224507042254 -3.371819295774647 -1.2863129577464787
C 2.963994507042253 3.381090704225353 2.401027042253521
H 3.3337945070422537 4.369820704225353 2.6912870422535216
H 3.120994507042253 2.671350704225353 3.2183370422535216
H 3.4665445070422534 3.0664207042253535 1.4881370422535212
C 1.2973745070422538 4.282440704225354 0.8488370422535213
H 1.7592145070422538 3.7367207042253527 0.02653704225352116
H 0.23311450704225378 4.4484607042253534 0.6605570422535213
H 1.7921845070422535 5.251370704225354 0.9736770422535213
C 0.7724845070422537 4.194670704225353 3.2772470422535216
H -0.2956954929577462 4.278220704225354 3.057857042253521
H 0.9298945070422537 3.612620704225354 4.190337042253521
H 1.2046345070422537 5.193640704225353 3.3918370422535213
N 2.876084507042253 -2.324759295774647 -2.4576629577464786
N 1.4527845070422536 3.504690704225353 2.1388470422535213
C -3.593905492957746 -3.637819295774647 0.8297870422535213
H -2.8952554929577463 -1.8680692957746468 1.7595270422535212
H -5.022615492957747 -1.2402792957746467 1.1579970422535213
H -4.898275492957747 -1.7933092957746464 -0.48931295774647876
H -3.883675492957746 0.07871070422535364 -1.2758929577464788
H -3.8751654929577466 -4.038529295774646 -0.1505529577464788
H -4.4603554929577465 -3.7321892957746465 1.4932570422535212
H -2.7953554929577464 -4.271929295774647 1.2313670422535212
H -5.648775492957746 1.147700704225353 0.9733970422535213
H -6.189795492957747 0.5254307042253537 -0.5943629577464788
H -5.2178854929577465 2.002970704225354 -0.5139729577464787
C 3.6710445070422537 1.0263707042253536 -0.27764295774647874
O 2.7356545070422538 1.6631507042253526 -0.7327029577464788
O 3.650814507042253 0.3883007042253537 0.7790570422535212
O 4.756604507042254 0.8696707042253538 -0.8334829577464786
O 2.4541502753425406 3.7146888655461012 -2.3971134288049205
H 1.7482948180869888 3.769903079086441 -1.7355343927210374
H 2.1912663662799745 2.9697094158963404 -2.9582369573220593
O -8.00454104377153 -6.295926089079092 2.2373560336568232
H -7.6792013841103515 -6.52532409066845 3.1208140233871537
H -7.480137652938756 -6.853152842225487 1.6428298579832763
O 3.8197535661363906 2.080624246405012 -4.398725557828673
H 3.7171298344349406 2.8904851347122293 -4.920799372707292
H 3.1273183198319976 2.147666676862671 -3.7241881708042746
O -10.985226414681733 4.044276370256596 9.782455236130389
H -11.215417621717094 4.039678545641337 10.723708775360075
H -11.57512470790776 3.3808924864225265 9.393991890860534
O -8.311101098124585 5.675387459429284 -1.6916648767935785
H -9.001592986526807 5.122975185509548 -2.087933710508217
H -8.790641006237198 6.452074783462447 -1.3664569102344082
O -2.692223393512535 -8.757206448037286 -3.435066685631704
H -3.561649486024151 -8.39580755015865 -3.2060329257357196
H -2.802496870663984 -9.714523602813085 -3.333353511908264
O -5.254243362182005 8.424634746915443 -8.174311082464923
H -6.148642693499462 8.328213000633966 -8.534477765936504
H -4.678154165820266 8.135150724008295 -8.89769354189892
O -2.3106988420335792 4.076224961499215 -9.499151207434439
H -1.7972446387767422 3.874670607598736 -10.295836829547484
H -1.670577406414099 4.502708594236505 -8.909814119709884
O -3.7021758505044575 -5.582128115794284 2.1842455674461436
H -3.7124754407656666 -6.37391735153366 2.742753473842917
H -3.0075876151667273 -5.763764729112852 1.5334635237997487
O -0.9452967071811806 7.297411524113125 -2.2591150776898603
H -1.8636766117173924 7.604798245019023 -2.2265710820104876
H -0.6698098507065329 7.4791000752311945 -3.170190380067404
O 0.012286187925815373 -5.450112375448315 -11.202757848289888
H -0.07143848986220602 -4.9427746003148645 -12.024077467653711
H 0.7515863753589676 -5.027142576850599 -10.74070403471888
O 3.0094887739184126 -9.255774758376504 -0.8646522642323409
H 3.415288818577232 -8.394960052084974 -1.0471124573900057
H 3.7457870161437006 -9.798599847655947 -0.5450153370091049
O 4.244582133035518 7.206215509633281 -2.413281189286815
H 3.8194763127116276 6.343055161267975 -2.5282012112004795
H 3.724915847365399 7.799816667334855 -2.9759058967190186
O 6.090298571343408 -11.100582552748087 -5.885440373553845
H 6.512847980231774 -11.79490157814104 -5.3578605739732765
H 6.031260375866065 -10.348114267846231 -5.2777661878328805
O 1.4561034524343395 -10.986500631260153 5.607577767021125
H 0.8299009448005759 -11.68521110762538 5.849737727688999
H 2.300274779044348 -11.292096057789497 5.972198324469339
O 9.9108580009336 -3.2489622505577613 -2.961931075047945
H 10.642773252461412 -3.093034841420814 -3.5775235250997772
H 9.931870535084544 -2.4793187146661233 -2.373569582962702
O -3.64843103838433 12.319495876132125 7.5256700967593515
H -4.508217100985368 12.478668002787245 7.943281779489961
H -3.0618340579572245 12.968066919831564 7.943068621107987
O -6.634613109452349 9.869382861501238 9.453805398661583
H -6.705851597860541 8.905453084512542 9.522593622245541
H -6.24995865896466 10.013616954171685 8.576195334606055
O -10.358674205147144 0.3421063630009744 -2.992988220467648
H -11.046579383672844 0.37548208208811706 -2.311343236892662
H -10.63608120861198 1.0095726435001575 -3.6383532823707894
O -2.865764658830685 6.84151915596688 -10.597783175934477
H -2.009536445449693 6.9260977907328325 -11.043526440663767
H -2.907956502686942 7.6199790093491 -10.022298989110773
O -8.908938715363131 -1.864920385606489 -3.676332568095388
H -8.618477142607874 -1.4176755464100759 -4.485388490430005
H -8.438468072986268 -1.3984296452404403 -2.9692217506740732
O 7.453798746089573 2.8559400970186957 15.635597730547389
H 7.358223665835202 3.60219077406971 16.246288067735783
H 7.035411461431108 3.166888031259358 14.818759064391347
O 5.361951247154952 0.6641981820531804 -11.748876499554548
H 4.86565900841352 1.4009778712545113 -11.3618144111948
H 4.759382314950524 0.3003233992634482 -12.414810256539237
O 3.4513995386976375 -6.585279011163987 3.1723540653303877
H 3.281401027057479 -6.19439437890248 4.042570743636382
H 3.508549103055761 -5.820900507432372 2.5795460233583736
C 1.9894748501048103 1.3927099593678223 -8.339137442101073
O 3.0461799916150403 0.9541159785802868 -7.987245667228761
O 0.9327697085945788 1.8313039401553577 -8.691029216973385