146

C -5.3564454929577465 1.0091607042253532 -0.0734429577464788
C -4.079135492957747 0.16955070422535368 -0.19788295774647868
C -4.333545492957747 -1.2789292957746463 0.3017270422535212
C -3.1403854929577464 -2.1745492957746464 0.7330270422535212
C -2.905235492957746 0.902300704225353 0.41966704225352136
C -2.7423854929577463 1.056130704225354 1.8024770422535212
C -1.8861754929577463 1.3499307042253532 -0.4326129577464788
C -1.5304554929577463 1.5279207042253526 2.3254170422535214
H -3.5237954929577464 0.7301007042253529 2.484817042253521
C -0.6776454929577462 1.8010507042253527 0.08546704225352131
H -1.9759254929577463 1.2426607042253535 -1.5115229577464788
C -0.4680254929577463 1.8513207042253539 1.4698070422535212
H -1.3950654929577464 1.5446707042253527 3.404047042253521
H 0.1461845070422536 1.9972507042253538 -0.6030529577464789
C -1.8679654929577463 -2.0866092957746467 -0.08765295774647863
C -0.6628654929577462 -1.814079295774647 0.5787970422535212
C -1.8438954929577462 -2.213429295774647 -1.4808029577464787
C 0.5129345070422537 -1.5763292957746469 -0.13022295774647863
H -0.6401854929577462 -1.7032692957746463 1.6609470422535213
C -0.6547954929577462 -1.9962392957746466 -2.1933129577464787
H -2.7578654929577464 -2.4351492957746466 -2.026182957746479
C 0.5308845070422537 -1.645769295774647 -1.5261029577464789
H 1.4044045070422537 -1.2610992957746463 0.41551704225352126
H -0.6795654929577464 -2.0467992957746466 -3.2793129577464786
C 1.7843245070422535 -1.2521692957746469 -2.2771629577464787
H 1.4981245070422535 -0.9384492957746469 -3.290282957746479
H 2.241984507042254 -0.38631929577464685 -1.8135029577464787
C 0.9385645070422537 2.0647807042253534 1.9815670422535212
H 1.0508945070422537 1.5807407042253532 2.9609770422535213
H 1.6053245070422537 1.5496207042253536 1.3096170422535214
C 3.9676945070422533 -1.6881692957746468 -3.314052957746479
H 4.795084507042254 -2.398849295774647 -3.4044129577464783
H 3.548404507042253 -1.4816192957746468 -4.303802957746479
H 4.307714507042253 -0.7637192957746466 -2.851282957746479
C 2.344694507042253 -3.565079295774647 -3.101282957746479
H 1.6334345070422536 -4.047909295774646 -2.4251929577464786
H 1.8561845070422536 -3.293109295774647 -4.041792957746479
H 3.1808045070422537 -4.243519295774647 -3.298122957746479
C 3.5156645070422536 -2.648489295774647 -1.1110629577464786
H 3.9311845070422535 -1.748249295774647 -0.6771029577464787
H 2.767184507042254 -3.1044092957746465 -0.45972295774647876
H 4.319224507042254 -3.371819295774647 -1.2863129577464787
C 2.963994507042253 3.381090704225353 2.401027042253521
H 3.3337945070422537 4.369820704225353 2.6912870422535216
H 3.120994507042253 2.671350704225353 3.2183370422535216
H 3.4665445070422534 3.0664207042253535 1.4881370422535212
C 1.2973745070422538 4.282440704225354 0.8488370422535213
H 1.7592145070422538 3.7367207042253527 0.02653704225352116
H 0.23311450704225378 4.4484607042253534 0.6605570422535213
H 1.7921845070422535 5.251370704225354 0.9736770422535213
C 0.7724845070422537 4.194670704225353 3.2772470422535216
H -0.2956954929577462 4.278220704225354 3.057857042253521
H 0.9298945070422537 3.612620704225354 4.190337042253521
H 1.2046345070422537 5.193640704225353 3.3918370422535213
N 2.876084507042253 -2.324759295774647 -2.4576629577464786
N 1.4527845070422536 3.504690704225353 2.1388470422535213
C -3.593905492957746 -3.637819295774647 0.8297870422535213
H -2.8952554929577463 -1.8680692957746468 1.7595270422535212
H -5.022615492957747 -1.2402792957746467 1.1579970422535213
H -4.898275492957747 -1.7933092957746464 -0.48931295774647876
H -3.883675492957746 0.07871070422535364 -1.2758929577464788
H -3.8751654929577466 -4.038529295774646 -0.1505529577464788
H -4.4603554929577465 -3.7321892957746465 1.4932570422535212
H -2.7953554929577464 -4.271929295774647 1.2313670422535212
H -5.648775492957746 1.147700704225353 0.9733970422535213
H -6.189795492957747 0.5254307042253537 -0.5943629577464788
H -5.2178854929577465 2.002970704225354 -0.5139729577464787
C 3.6710445070422537 1.0263707042253536 -0.27764295774647874
O 2.7356545070422538 1.6631507042253526 -0.7327029577464788
O 3.650814507042253 0.3883007042253537 0.7790570422535212
O 4.756604507042254 0.8696707042253538 -0.8334829577464786
O 8.350941303662228 7.756510392022257 8.666581411378463
H 7.578376101645555 8.068899931925689 9.161074223148116
H 7.971896462899808 7.347464088824242 7.874137044352342
O -7.702580713024887 -2.9185011878982 -13.199095811858847
H -7.756426974901455 -3.620541913262591 -13.864833565716747
H -7.757092106029653 -3.3915474952148923 -12.355165931201263
O -6.955344957026579 7.043914952865566 7.123792815533446
H -6.866087620111297 7.322161987479744 8.047686246852885
H -6.990043525429116 7.877329204780079 6.630661353997492
O 0.39703376161172743 -4.721646668654609 -11.111323004682085
H 0.632491297936729 -4.551554296105003 -12.035766453622152
H 1.2503893808222513 -4.863596972049162 -10.67474970862744
O 8.46661807763877 10.616115959962695 4.884796114777997
H 8.415376774374213 11.553973187208427 5.123051244927796
H 8.855100166971958 10.621024527848533 3.9970914811702682
O 7.708412606583609 -4.87285634577621 2.7699936327839776
H 7.6379321335983885 -4.738994676925617 3.727114792011123
H 7.113576961659149 -4.205627927960997 2.395909767471522
O -11.365081252833425 -6.95361234753225 1.583741299078726
H -11.837800833956546 -7.541359453295954 2.192064317046294
H -10.548360107738823 -7.434168044368546 1.3812697265221212
O 10.081769637336416 -0.5503323417989736 2.5703347459690358
H 9.80087705314748 0.37086876681121816 2.463305635242019
H 10.626360985785407 -0.5373710331485589 3.371717433561285
O 5.955488971450243 10.220426221347607 -4.710483893345173
H 6.535332847845822 10.207917609846449 -5.486751869333403
H 6.5226361417851955 10.556039246699974 -4.000082648487814
O 1.635279694013633 -6.911461842307157 10.29773395460063
H 2.3534201536072654 -6.867272126339338 9.64866623379075
H 1.179251348533615 -7.739867366329664 10.086205279977651
O 6.389664125297738 6.437486204729932 7.439649323299931
H 6.0488696361066685 7.1770312861840635 6.9143879164423545
H 5.5917570973430095 5.99200104096037 7.761905879325806
O 0.7548748439772726 1.759174970633656 -4.950309706068111
H 0.7258375267478261 2.707146219763533 -4.751627291317187
H 0.6031643287100346 1.3354248245916092 -4.0921828637034805
O 4.481528731205246 -5.538680186341626 -11.201961645840782
H 4.74865808922746 -5.479971011260928 -12.13156505361422
H 4.096302014949954 -4.6696822041668815 -11.01379993783571
O -2.6159534200635584 1.3008694619351013 12.32435190325495
H -2.1541377398105617 2.111487398289594 12.062450785210668
H -2.893630797864717 1.473957985972742 13.236436099480246
O 5.6793595558240195 -9.266767340643854 -1.9518157023640166
H 5.473297067388738 -8.677910638650513 -1.2103621351884413
H 4.839334402016525 -9.345891371974306 -2.4283228617401504
O -0.6855498653480239 0.03517608329410077 10.126388990768628
H -0.9830506467338684 -0.600661994023493 10.794349005595773
H 0.17683448045998418 0.33212908848431066 10.45361077658644
O 9.339077279501845 4.714893598741484 -2.554293391954833
H 9.452254601145075 4.466609825563012 -1.6245012545703923
H 8.470571868609552 4.354723506033029 -2.788681531307472
O -3.294695217720562 3.420743095853305 2.200595867998477
H -2.7217841760979757 2.9383433928347635 1.5857537567092879
H -4.188667259248531 3.2584924333157295 1.8637714986716245
O -4.010626067369619 -1.8655852918100733 -3.741221083832282
H -3.3860812868265437 -2.013359385622551 -3.0152224673085963
H -3.446326714272309 -1.8041366279458644 -4.526556837572847
O -8.396395894739047 3.6835353946744376 -9.666457808167792
H -8.381772320196688 3.6755589159870072 -10.63531790320492
H -7.63590375656019 3.1375677788362406 -9.41639178783695
O 8.876457488680334 3.8891189602968916 -0.1921206827409724
H 8.912736236690687 3.8155828541931927 0.7734069711570961
H 9.070458697658726 2.9919549874574307 -0.5026400558142775
O 0.06648852159880736 -6.118836666381685 8.153052722137735
H -0.003136162861546943 -6.61952287539569 7.326352607031307
H -0.6810004768593552 -6.435511194167461 8.6821457053984
O 0.7079651337266593 5.150607790937375 -6.198848293549915
H 0.5893729822872289 5.106357043640434 -7.159548626578186
H -0.1790431680349429 4.985002708405133 -5.845644140763616
O 3.751479921952779 9.94671029576807 1.3345553063058047
H 4.624113422845738 10.244256918852368 1.63279034299739
H 3.316986273967524 9.644982230737675 2.146428072774466
C 7.983205380416774 14.210726641311584 -1.480824957819026
O 8.237521063819628 13.041137627775747 -1.4950843368941165
O 7.728889697013921 15.38031565484742 -1.4665655787439364