146

C -5.3564454929577465 1.0091607042253532 -0.0734429577464788
C -4.079135492957747 0.16955070422535368 -0.19788295774647868
C -4.333545492957747 -1.2789292957746463 0.3017270422535212
C -3.1403854929577464 -2.1745492957746464 0.7330270422535212
C -2.905235492957746 0.902300704225353 0.41966704225352136
C -2.7423854929577463 1.056130704225354 1.8024770422535212
C -1.8861754929577463 1.3499307042253532 -0.4326129577464788
C -1.5304554929577463 1.5279207042253526 2.3254170422535214
H -3.5237954929577464 0.7301007042253529 2.484817042253521
C -0.6776454929577462 1.8010507042253527 0.08546704225352131
H -1.9759254929577463 1.2426607042253535 -1.5115229577464788
C -0.4680254929577463 1.8513207042253539 1.4698070422535212
H -1.3950654929577464 1.5446707042253527 3.404047042253521
H 0.1461845070422536 1.9972507042253538 -0.6030529577464789
C -1.8679654929577463 -2.0866092957746467 -0.08765295774647863
C -0.6628654929577462 -1.814079295774647 0.5787970422535212
C -1.8438954929577462 -2.213429295774647 -1.4808029577464787
C 0.5129345070422537 -1.5763292957746469 -0.13022295774647863
H -0.6401854929577462 -1.7032692957746463 1.6609470422535213
C -0.6547954929577462 -1.9962392957746466 -2.1933129577464787
H -2.7578654929577464 -2.4351492957746466 -2.026182957746479
C 0.5308845070422537 -1.645769295774647 -1.5261029577464789
H 1.4044045070422537 -1.2610992957746463 0.41551704225352126
H -0.6795654929577464 -2.0467992957746466 -3.2793129577464786
C 1.7843245070422535 -1.2521692957746469 -2.2771629577464787
H 1.4981245070422535 -0.9384492957746469 -3.290282957746479
H 2.241984507042254 -0.38631929577464685 -1.8135029577464787
C 0.9385645070422537 2.0647807042253534 1.9815670422535212
H 1.0508945070422537 1.5807407042253532 2.9609770422535213
H 1.6053245070422537 1.5496207042253536 1.3096170422535214
C 3.9676945070422533 -1.6881692957746468 -3.314052957746479
H 4.795084507042254 -2.398849295774647 -3.4044129577464783
H 3.548404507042253 -1.4816192957746468 -4.303802957746479
H 4.307714507042253 -0.7637192957746466 -2.851282957746479
C 2.344694507042253 -3.565079295774647 -3.101282957746479
H 1.6334345070422536 -4.047909295774646 -2.4251929577464786
H 1.8561845070422536 -3.293109295774647 -4.041792957746479
H 3.1808045070422537 -4.243519295774647 -3.298122957746479
C 3.5156645070422536 -2.648489295774647 -1.1110629577464786
H 3.9311845070422535 -1.748249295774647 -0.6771029577464787
H 2.767184507042254 -3.1044092957746465 -0.45972295774647876
H 4.319224507042254 -3.371819295774647 -1.2863129577464787
C 2.963994507042253 3.381090704225353 2.401027042253521
H 3.3337945070422537 4.369820704225353 2.6912870422535216
H 3.120994507042253 2.671350704225353 3.2183370422535216
H 3.4665445070422534 3.0664207042253535 1.4881370422535212
C 1.2973745070422538 4.282440704225354 0.8488370422535213
H 1.7592145070422538 3.7367207042253527 0.02653704225352116
H 0.23311450704225378 4.4484607042253534 0.6605570422535213
H 1.7921845070422535 5.251370704225354 0.9736770422535213
C 0.7724845070422537 4.194670704225353 3.2772470422535216
H -0.2956954929577462 4.278220704225354 3.057857042253521
H 0.9298945070422537 3.612620704225354 4.190337042253521
H 1.2046345070422537 5.193640704225353 3.3918370422535213
N 2.876084507042253 -2.324759295774647 -2.4576629577464786
N 1.4527845070422536 3.504690704225353 2.1388470422535213
C -3.593905492957746 -3.637819295774647 0.8297870422535213
H -2.8952554929577463 -1.8680692957746468 1.7595270422535212
H -5.022615492957747 -1.2402792957746467 1.1579970422535213
H -4.898275492957747 -1.7933092957746464 -0.48931295774647876
H -3.883675492957746 0.07871070422535364 -1.2758929577464788
H -3.8751654929577466 -4.038529295774646 -0.1505529577464788
H -4.4603554929577465 -3.7321892957746465 1.4932570422535212
H -2.7953554929577464 -4.271929295774647 1.2313670422535212
H -5.648775492957746 1.147700704225353 0.9733970422535213
H -6.189795492957747 0.5254307042253537 -0.5943629577464788
H -5.2178854929577465 2.002970704225354 -0.5139729577464787
C 3.6710445070422537 1.0263707042253536 -0.27764295774647874
O 2.7356545070422538 1.6631507042253526 -0.7327029577464788
O 3.650814507042253 0.3883007042253537 0.7790570422535212
O 4.756604507042254 0.8696707042253538 -0.8334829577464786
O 2.652056683294645 0.41724237093550365 -8.54446216546295
H 1.9563659667536129 0.9798953229430625 -8.172436038133423
H 3.3811736434854707 1.0311271628021714 -8.719092818490727
O 2.7788287088837262 -7.487198826199877 -6.371851391606596
H 2.847048879520453 -7.589742400850248 -5.410707187797293
H 3.2324554653547515 -6.649819293986244 -6.550681560043732
O 6.2815773028303346 -5.39860447883539 -5.561910367937019
H 6.471610256015027 -5.183313719165561 -6.48738577139445
H 6.803521121827172 -6.197904506017476 -5.395609253515886
O 9.00393266963262 4.6481397674509015 -6.075182901073349
H 8.990285246700006 4.124895605155565 -5.259709632737009
H 9.76321588770147 4.298246776006426 -6.565107215225082
O 12.622165793678352 -2.856100864656848 -6.642124596253386
H 13.310088532809615 -2.4176484104443605 -7.165086456508211
H 13.117915765245542 -3.3682834811028255 -5.985723135711376
O -6.46567919132805 4.222694700247064 3.2349238422487323
H -6.388463504127375 4.229349153535933 2.2690248761029177
H -7.216959508585509 4.8079947428595835 3.4137077602036583
O 7.5354807732498195 4.989176331517736 -11.60088865392135
H 7.409766209134529 4.977751943235117 -12.561634556135706
H 6.670315596880167 4.731672756973596 -11.248549228091287
O 2.307049448635292 -3.4866652021224573 -12.195142636683153
H 2.082616711930113 -4.3718716350528 -12.519190279312696
H 3.0072379069986805 -3.6461357532744967 -11.544552742517892
O -10.238581843857059 0.9948328798358494 -4.786272005486069
H -9.349205306729854 1.0243428452349077 -5.169815867449426
H -10.096797620326587 0.6473558862660977 -3.8928969906140463
O 1.9228542130724215 10.225210165154873 -8.531387364546886
H 1.525273170436551 11.040285307103801 -8.189994358740512
H 2.740244057302851 10.131264464417447 -8.019518248305333
O -8.574188562268718 -1.8076059649736531 3.639471846234067
H -8.785085309695194 -2.467099420422788 2.9615645509165622
H -7.614566239725123 -1.8842040311411772 3.7500145015099022
O 9.96528834591244 -0.235112536713868 6.111032973306963
H 10.334366112422005 0.6497476793800998 5.970422315309613
H 9.135855228715586 -0.07028763191871512 6.584145432619101
O -2.9787454419434445 -11.665139545287385 7.5934184016993065
H -2.5735296571235384 -11.884196130601175 6.740903453406052
H -2.257491329320805 -11.26030757225919 8.09826047892646
O -1.6365538175924108 -8.73871582291541 -6.481675163287704
H -1.9815043350416746 -9.623045958399425 -6.676448644250374
H -2.430895389102019 -8.188728199512708 -6.407533230648397
O 7.282101654624887 -15.575420505922159 -1.8710147685862202
H 8.202138816188704 -15.870360903113783 -1.9452383520758296
H 7.177006840976451 -15.371179243167441 -0.9296314614086603
O -11.432040219980248 -2.734224384295418 4.032862293059626
H -12.309408399228113 -2.5776087923370126 3.6525150947015965
H -11.584465002448098 -2.71288420702699 4.989561423833653
O -7.958614782662906 -7.037197494642273 -3.760901371341699
H -8.388344427841677 -7.198762004513653 -4.614245790731989
H -8.601856399114116 -6.501713897650015 -3.2725782359923015
O 5.349392974028108 7.041787039711561 0.7965609873491909
H 5.254542075041012 7.986299820195553 0.601968409474954
H 6.259667169387329 6.838879494319981 0.5335184782631415
O -8.507844023954164 -5.067051476062587 9.102531040425248
H -8.401827598309817 -4.143774281331867 8.828146098994832
H -7.631768254290272 -5.314670694892942 9.434401365362058
O -2.025733922073814 0.6390237594627074 6.446159053841356
H -1.8786650046189182 0.596992832946018 7.403014054160002
H -2.3661466547375545 1.534539381246197 6.300787506136397
O -5.976557266008222 6.474377252540091 7.870645242700617
H -6.1137103041791745 6.343092103065399 6.920423894514897
H -6.872237691216105 6.4627482849480025 8.24021700476067
O 0.850146333140818 0.273266131886335 6.306965784813998
H 0.672223372791271 0.426889808839919 7.247024582421741
H 1.1859502618437696 -0.6352174670244026 6.277721703740102
O -3.1092642433552893 8.992236787714589 -5.4055357389601975
H -3.5894514104611828 8.280452238964884 -5.854702075196559
H -2.4253583030385393 8.52951335939836 -4.898464108924818
O -2.2666019414329224 3.3622079989863423 5.8329019643002145
H -2.599673566327177 3.7277177841254527 4.999575349725914
H -3.042828307695279 2.9392256316731094 6.2297904745410975
C -7.687933979402243 -5.902510691544188 -12.80606100661111
O -8.21364699999279 -5.600383979931077 -11.773993408335002
O -7.162220958811695 -6.204637403157297 -13.838128604887213