146

C -5.3564454929577465 1.0091607042253532 -0.0734429577464788
C -4.079135492957747 0.16955070422535368 -0.19788295774647868
C -4.333545492957747 -1.2789292957746463 0.3017270422535212
C -3.1403854929577464 -2.1745492957746464 0.7330270422535212
C -2.905235492957746 0.902300704225353 0.41966704225352136
C -2.7423854929577463 1.056130704225354 1.8024770422535212
C -1.8861754929577463 1.3499307042253532 -0.4326129577464788
C -1.5304554929577463 1.5279207042253526 2.3254170422535214
H -3.5237954929577464 0.7301007042253529 2.484817042253521
C -0.6776454929577462 1.8010507042253527 0.08546704225352131
H -1.9759254929577463 1.2426607042253535 -1.5115229577464788
C -0.4680254929577463 1.8513207042253539 1.4698070422535212
H -1.3950654929577464 1.5446707042253527 3.404047042253521
H 0.1461845070422536 1.9972507042253538 -0.6030529577464789
C -1.8679654929577463 -2.0866092957746467 -0.08765295774647863
C -0.6628654929577462 -1.814079295774647 0.5787970422535212
C -1.8438954929577462 -2.213429295774647 -1.4808029577464787
C 0.5129345070422537 -1.5763292957746469 -0.13022295774647863
H -0.6401854929577462 -1.7032692957746463 1.6609470422535213
C -0.6547954929577462 -1.9962392957746466 -2.1933129577464787
H -2.7578654929577464 -2.4351492957746466 -2.026182957746479
C 0.5308845070422537 -1.645769295774647 -1.5261029577464789
H 1.4044045070422537 -1.2610992957746463 0.41551704225352126
H -0.6795654929577464 -2.0467992957746466 -3.2793129577464786
C 1.7843245070422535 -1.2521692957746469 -2.2771629577464787
H 1.4981245070422535 -0.9384492957746469 -3.290282957746479
H 2.241984507042254 -0.38631929577464685 -1.8135029577464787
C 0.9385645070422537 2.0647807042253534 1.9815670422535212
H 1.0508945070422537 1.5807407042253532 2.9609770422535213
H 1.6053245070422537 1.5496207042253536 1.3096170422535214
C 3.9676945070422533 -1.6881692957746468 -3.314052957746479
H 4.795084507042254 -2.398849295774647 -3.4044129577464783
H 3.548404507042253 -1.4816192957746468 -4.303802957746479
H 4.307714507042253 -0.7637192957746466 -2.851282957746479
C 2.344694507042253 -3.565079295774647 -3.101282957746479
H 1.6334345070422536 -4.047909295774646 -2.4251929577464786
H 1.8561845070422536 -3.293109295774647 -4.041792957746479
H 3.1808045070422537 -4.243519295774647 -3.298122957746479
C 3.5156645070422536 -2.648489295774647 -1.1110629577464786
H 3.9311845070422535 -1.748249295774647 -0.6771029577464787
H 2.767184507042254 -3.1044092957746465 -0.45972295774647876
H 4.319224507042254 -3.371819295774647 -1.2863129577464787
C 2.963994507042253 3.381090704225353 2.401027042253521
H 3.3337945070422537 4.369820704225353 2.6912870422535216
H 3.120994507042253 2.671350704225353 3.2183370422535216
H 3.4665445070422534 3.0664207042253535 1.4881370422535212
C 1.2973745070422538 4.282440704225354 0.8488370422535213
H 1.7592145070422538 3.7367207042253527 0.02653704225352116
H 0.23311450704225378 4.4484607042253534 0.6605570422535213
H 1.7921845070422535 5.251370704225354 0.9736770422535213
C 0.7724845070422537 4.194670704225353 3.2772470422535216
H -0.2956954929577462 4.278220704225354 3.057857042253521
H 0.9298945070422537 3.612620704225354 4.190337042253521
H 1.2046345070422537 5.193640704225353 3.3918370422535213
N 2.876084507042253 -2.324759295774647 -2.4576629577464786
N 1.4527845070422536 3.504690704225353 2.1388470422535213
C -3.593905492957746 -3.637819295774647 0.8297870422535213
H -2.8952554929577463 -1.8680692957746468 1.7595270422535212
H -5.022615492957747 -1.2402792957746467 1.1579970422535213
H -4.898275492957747 -1.7933092957746464 -0.48931295774647876
H -3.883675492957746 0.07871070422535364 -1.2758929577464788
H -3.8751654929577466 -4.038529295774646 -0.1505529577464788
H -4.4603554929577465 -3.7321892957746465 1.4932570422535212
H -2.7953554929577464 -4.271929295774647 1.2313670422535212
H -5.648775492957746 1.147700704225353 0.9733970422535213
H -6.189795492957747 0.5254307042253537 -0.5943629577464788
H -5.2178854929577465 2.002970704225354 -0.5139729577464787
C 3.6710445070422537 1.0263707042253536 -0.27764295774647874
O 2.7356545070422538 1.6631507042253526 -0.7327029577464788
O 3.650814507042253 0.3883007042253537 0.7790570422535212
O 4.756604507042254 0.8696707042253538 -0.8334829577464786
O 5.5630789749984775 7.918966596155093 6.899381992851257
H 6.526845141934278 7.85612835878209 6.820810443969184
H 5.422231813996474 8.731162709825764 7.40875562239634
O -5.417666306458243 -1.166270911281973 4.846277921775349
H -5.408333234934595 -1.2696888673173765 5.809701492716706
H -5.351593290107815 -0.20875567258799732 4.7130080133969985
O -3.2877878626730324 -4.495110824379055 -6.187518307542461
H -3.1014552684438725 -4.341397238618249 -7.1259316784938695
H -3.1657291795400333 -3.624925353767215 -5.779056719497896
O -2.3600376301539745 3.545797246896808 9.514289115891467
H -2.6585704664276744 3.6667288973287047 8.60038483288903
H -2.461730284095542 4.423623059648872 9.911834573544425
O -2.316922851286056 -0.900950492815427 10.803898759931435
H -1.8353720815412387 -0.4035934957606271 11.48191957859323
H -3.058710796746751 -0.32230603813205594 10.57177124468737
O -7.307334506975829 -5.997740332563584 4.630724655176609
H -7.768672664828566 -6.300594178456178 5.427225759405039
H -7.338472411536537 -6.762909154048859 4.036999929544937
O -9.825290238365122 1.5140154260964334 -0.2772859285220952
H -9.85797592168245 1.3605345790969832 -1.2334985788308075
H -10.718270080125194 1.29156125792806 0.026133071500439087
O 6.147856176933575 4.450502784416624 9.328118369663882
H 6.337633236839274 4.582995651218928 10.26907408843074
H 5.344319199710314 4.970251279973472 9.175961306399312
O 7.537329541773177 -4.670736737735197 10.162845008552672
H 7.4549968797418735 -4.745487253349134 11.125446198079413
H 7.6814933665885174 -3.7243002513655 10.013056113160545
O -6.066249563885069 -1.3997405387186177 -8.986178073901895
H -6.0417792794927685 -1.4492163772429811 -9.953608021486767
H -6.040654696056832 -0.4491962852072291 -8.79970429784389
O -3.493673817287111 -7.937369015194332 -7.441082567028821
H -4.147305979962202 -8.598419148246252 -7.167687112771221
H -2.7820849199217346 -8.02847980871625 -6.78969788133984
O -0.5065223161054379 3.7140035967913683 -10.243699217616081
H -1.4712148857601157 3.8046440901943837 -10.23274915329146
H -0.3608172042884307 2.7570813212976466 -10.198624575584095
O -2.9107275249855826 -8.557720091625198 2.43615385328743
H -2.4978787906494073 -8.103475563364345 1.6863637573258359
H -2.1849136758662424 -8.674746282152876 3.067391583035221
O -2.011710129630984 -4.385086317899063 11.614807742599037
H -1.6297225205510588 -4.359521307378705 12.504975846749312
H -2.215124467474774 -3.457779295849079 11.420678305582488
O 6.722439863017821 -7.780110936683261 9.86200073324127
H 6.704422360335725 -8.01521619085169 10.801877451731254
H 7.198752515138078 -8.51438153036855 9.446146315230324
O 5.103526318707928 10.909350386742071 4.870770063762817
H 5.70063539282394 10.743552168980258 4.125827742844393
H 5.342362242328606 11.800033965567089 5.168431126550205
O -3.614912766036095 -3.1949627421945133 -9.170702726741888
H -3.764517650937991 -3.4450129914097922 -8.246548730818661
H -2.6806334504793083 -2.9391076649701784 -9.195648353237756
O 15.059386876488773 -2.8700957877714215 2.698791591511596
H 15.649500751051235 -2.262778483472128 2.2277303812134863
H 15.064661839629068 -3.671339033835179 2.1538664776646734
O -1.664727257876713 -1.189787131659117 -9.48350998966494
H -1.751702972664385 -0.9027615480954463 -10.404932203591382
H -2.1871144317939732 -0.5425008625481823 -8.986424412880433
O -2.9691526902524386 0.3608033493452292 -4.797324129032468
H -2.8000065719128657 0.7662261913802106 -5.661030830816664
H -2.4954443552661076 -0.4835214833629434 -4.838286728276092
O -9.114156641108492 1.1064271287334666 -12.113314792240015
H -8.893569915467477 0.7000800396504783 -12.964896201480938
H -8.952164734170681 2.05110725019801 -12.255792981786307
O 5.478508940686699 0.2432348578226946 -11.840105448319036
H 5.5459797565094116 0.12362039118180002 -12.799327750646519
H 5.64393734341031 1.1891001140571857 -11.7099735732047
O 2.658639042608989 -1.519806377277449 -7.4477731831422265
H 2.507539956633598 -0.6551184714819408 -7.037345054612541
H 3.6069042171778767 -1.521761940980951 -7.64715041045377
O 9.927508025451996 8.359091360465992 -2.7061456988944026
H 10.83661687449128 8.554773150328487 -2.9785371352771928
H 10.030420021079438 7.699071530720442 -2.0041878014399828
C 10.630927484970762 -7.5956456968157084 0.3335068463086166
O 10.450189428910962 -7.860238459418065 -0.8198112721522779
O 10.811665541030562 -7.3310529342133535 1.486824964769511