146

C -5.3564454929577465 1.0091607042253532 -0.0734429577464788
C -4.079135492957747 0.16955070422535368 -0.19788295774647868
C -4.333545492957747 -1.2789292957746463 0.3017270422535212
C -3.1403854929577464 -2.1745492957746464 0.7330270422535212
C -2.905235492957746 0.902300704225353 0.41966704225352136
C -2.7423854929577463 1.056130704225354 1.8024770422535212
C -1.8861754929577463 1.3499307042253532 -0.4326129577464788
C -1.5304554929577463 1.5279207042253526 2.3254170422535214
H -3.5237954929577464 0.7301007042253529 2.484817042253521
C -0.6776454929577462 1.8010507042253527 0.08546704225352131
H -1.9759254929577463 1.2426607042253535 -1.5115229577464788
C -0.4680254929577463 1.8513207042253539 1.4698070422535212
H -1.3950654929577464 1.5446707042253527 3.404047042253521
H 0.1461845070422536 1.9972507042253538 -0.6030529577464789
C -1.8679654929577463 -2.0866092957746467 -0.08765295774647863
C -0.6628654929577462 -1.814079295774647 0.5787970422535212
C -1.8438954929577462 -2.213429295774647 -1.4808029577464787
C 0.5129345070422537 -1.5763292957746469 -0.13022295774647863
H -0.6401854929577462 -1.7032692957746463 1.6609470422535213
C -0.6547954929577462 -1.9962392957746466 -2.1933129577464787
H -2.7578654929577464 -2.4351492957746466 -2.026182957746479
C 0.5308845070422537 -1.645769295774647 -1.5261029577464789
H 1.4044045070422537 -1.2610992957746463 0.41551704225352126
H -0.6795654929577464 -2.0467992957746466 -3.2793129577464786
C 1.7843245070422535 -1.2521692957746469 -2.2771629577464787
H 1.4981245070422535 -0.9384492957746469 -3.290282957746479
H 2.241984507042254 -0.38631929577464685 -1.8135029577464787
C 0.9385645070422537 2.0647807042253534 1.9815670422535212
H 1.0508945070422537 1.5807407042253532 2.9609770422535213
H 1.6053245070422537 1.5496207042253536 1.3096170422535214
C 3.9676945070422533 -1.6881692957746468 -3.314052957746479
H 4.795084507042254 -2.398849295774647 -3.4044129577464783
H 3.548404507042253 -1.4816192957746468 -4.303802957746479
H 4.307714507042253 -0.7637192957746466 -2.851282957746479
C 2.344694507042253 -3.565079295774647 -3.101282957746479
H 1.6334345070422536 -4.047909295774646 -2.4251929577464786
H 1.8561845070422536 -3.293109295774647 -4.041792957746479
H 3.1808045070422537 -4.243519295774647 -3.298122957746479
C 3.5156645070422536 -2.648489295774647 -1.1110629577464786
H 3.9311845070422535 -1.748249295774647 -0.6771029577464787
H 2.767184507042254 -3.1044092957746465 -0.45972295774647876
H 4.319224507042254 -3.371819295774647 -1.2863129577464787
C 2.963994507042253 3.381090704225353 2.401027042253521
H 3.3337945070422537 4.369820704225353 2.6912870422535216
H 3.120994507042253 2.671350704225353 3.2183370422535216
H 3.4665445070422534 3.0664207042253535 1.4881370422535212
C 1.2973745070422538 4.282440704225354 0.8488370422535213
H 1.7592145070422538 3.7367207042253527 0.02653704225352116
H 0.23311450704225378 4.4484607042253534 0.6605570422535213
H 1.7921845070422535 5.251370704225354 0.9736770422535213
C 0.7724845070422537 4.194670704225353 3.2772470422535216
H -0.2956954929577462 4.278220704225354 3.057857042253521
H 0.9298945070422537 3.612620704225354 4.190337042253521
H 1.2046345070422537 5.193640704225353 3.3918370422535213
N 2.876084507042253 -2.324759295774647 -2.4576629577464786
N 1.4527845070422536 3.504690704225353 2.1388470422535213
C -3.593905492957746 -3.637819295774647 0.8297870422535213
H -2.8952554929577463 -1.8680692957746468 1.7595270422535212
H -5.022615492957747 -1.2402792957746467 1.1579970422535213
H -4.898275492957747 -1.7933092957746464 -0.48931295774647876
H -3.883675492957746 0.07871070422535364 -1.2758929577464788
H -3.8751654929577466 -4.038529295774646 -0.1505529577464788
H -4.4603554929577465 -3.7321892957746465 1.4932570422535212
H -2.7953554929577464 -4.271929295774647 1.2313670422535212
H -5.648775492957746 1.147700704225353 0.9733970422535213
H -6.189795492957747 0.5254307042253537 -0.5943629577464788
H -5.2178854929577465 2.002970704225354 -0.5139729577464787
C 3.6710445070422537 1.0263707042253536 -0.27764295774647874
O 2.7356545070422538 1.6631507042253526 -0.7327029577464788
O 3.650814507042253 0.3883007042253537 0.7790570422535212
O 4.756604507042254 0.8696707042253538 -0.8334829577464786
O 1.6472019543178398 -10.038375912037688 -0.09154872643886591
H 2.349944338840668 -10.558846187465463 -0.5089588248927805
H 2.0760809181423374 -9.19671303658642 0.1243873353385263
O -15.014449858103825 1.3868542089000568 6.7446662865615385
H -15.460010477524015 1.1949586842543392 7.583486409676645
H -15.700950198060461 1.808214593294677 6.206024797255114
O -8.92265261669758 5.915012756670846 1.159759595112858
H -8.27227316761096 6.222647228071066 0.5106563975301535
H -8.910713707627949 6.599503625565915 1.8455377350017728
O 13.7344126946654 -2.2193150755394653 0.4016949971791084
H 13.447872949992853 -1.7213482736763561 1.1820099309495835
H 14.213717934208947 -1.566080138191607 -0.129824097749984
O -8.162741826440117 5.18247937745206 -3.7219317655282977
H -7.516609521401008 5.5765393409093305 -3.116789512429984
H -8.720018721252558 5.929224503370565 -3.9879695893901617
O 1.1737558002732187 10.652206283105874 3.493277668930645
H 0.58535930513739 10.561984683409978 2.7286751680452594
H 0.9732199882755214 9.874869807608125 4.035951914005128
O 2.0855161813742535 -3.185829723780426 -7.161521340399189
H 2.4172912871009635 -2.744143188233339 -7.957640452364505
H 2.683338280295899 -3.939588563638743 -7.045683981674284
O -0.05354487620464088 -7.334777127525825 -4.98327879449625
H 0.591659309257907 -8.046714603194916 -5.109072064187177
H 0.06468551969020209 -6.771337943318793 -5.762714361741331
O -12.25265084751636 2.547918920964621 -3.5416844034794384
H -13.098681888358085 2.501823508863352 -3.0714992826860548
H -12.066850531249557 1.6272402836139426 -3.7799930971967535
O -0.3965782084699956 7.6458221824919015 -5.342840457146419
H -0.814651800533007 7.88365577579364 -6.184040201806814
H -0.15241588784761162 6.715148316427255 -5.457700635243864
O 2.3452369675266773 14.230214414864898 6.811307866718088
H 2.431394752708626 14.354415494178392 7.768448548566846
H 3.1829148746554594 13.817575460641496 6.5524898579440425
O 5.643875893349058 -12.252198009594634 -4.179254170417455
H 5.156943920617163 -13.089658403585311 -4.202160486760484
H 5.8983019939642665 -12.154743887482267 -3.249344498616453
O 5.692814224492052 1.0303439383082558 5.230792378100038
H 6.110568678047837 1.428440998810844 6.009231395527548
H 6.439405970784799 0.7891545200183363 4.662118153985286
O 6.919286637696674 -1.7303556499101707 -6.409160736141985
H 6.948317696615186 -2.5242366578273434 -5.85429363512906
H 6.321699946836683 -1.9721614426098895 -7.132612220226346
O -1.3003196297243058 3.4214027081304037 -0.8561711021429089
H -1.5091943009379247 3.988890063668985 -1.6133347766078374
H -0.4153854889136366 3.708709717605848 -0.5854162443213751
O -4.214405562500542 -1.488789488443691 -9.32908943338288
H -3.811376533587638 -1.1505222689592962 -10.1427910045844
H -3.469487963430838 -1.568413942056548 -8.71450041519017
O -5.816425121433001 -4.431884483011793 -1.5570323038061424
H -5.307107941509079 -4.117095459712178 -2.3189189344438104
H -5.1446913131697345 -4.794235517935109 -0.9600085499854671
O -7.996228620795619 12.32526525146454 -4.927303886291073
H -8.245711636805067 12.05905406959909 -5.824999373788159
H -7.300269113519276 11.697290323210089 -4.681845543561627
O 9.12545079601048 -6.9390978860392725 -0.15021346886330855
H 8.964360214124325 -7.679782763938068 -0.7538715616440039
H 8.70351629571909 -7.2154436320225805 0.677171719812911
O 0.9462910364933266 -8.321867102698182 9.32002107093117
H 0.9055742523421104 -8.399095844613825 10.285083360014374
H 1.85663735132403 -8.039088424605106 9.146044777747043
O 1.332995931854526 7.543418605208037 0.7114126993657008
H 0.8570909905568853 7.820372299765974 -0.08594449463156906
H 2.224036085737991 7.33606752036996 0.39201495973092837
O 7.781567862228108 4.795107393707643 5.394863026802336
H 6.8442213085467305 4.908829286358753 5.177110584029601
H 7.788023164226339 4.057780317243114 6.023567294076211
O -8.401831792255148 -1.9313141020950524 1.316356449908404
H -7.977651921287204 -2.7537069582942038 1.0287651008760996
H -7.679875240548649 -1.4225541441375351 1.714984079316007
O 7.844580730059083 6.349154622297379 3.130274896138192
H 7.901758268928151 7.187284547483361 2.647329439117817
H 8.471960094227704 6.456736106848053 3.860879646942106
C -6.431091856998524 6.508768563449333 -11.252445174015477
O -6.894211675536215 5.411558091783786 -11.372725978157636
O -5.967972038460834 7.605979035114881 -11.132164369873319