146

C -5.3564454929577465 1.0091607042253532 -0.0734429577464788
C -4.079135492957747 0.16955070422535368 -0.19788295774647868
C -4.333545492957747 -1.2789292957746463 0.3017270422535212
C -3.1403854929577464 -2.1745492957746464 0.7330270422535212
C -2.905235492957746 0.902300704225353 0.41966704225352136
C -2.7423854929577463 1.056130704225354 1.8024770422535212
C -1.8861754929577463 1.3499307042253532 -0.4326129577464788
C -1.5304554929577463 1.5279207042253526 2.3254170422535214
H -3.5237954929577464 0.7301007042253529 2.484817042253521
C -0.6776454929577462 1.8010507042253527 0.08546704225352131
H -1.9759254929577463 1.2426607042253535 -1.5115229577464788
C -0.4680254929577463 1.8513207042253539 1.4698070422535212
H -1.3950654929577464 1.5446707042253527 3.404047042253521
H 0.1461845070422536 1.9972507042253538 -0.6030529577464789
C -1.8679654929577463 -2.0866092957746467 -0.08765295774647863
C -0.6628654929577462 -1.814079295774647 0.5787970422535212
C -1.8438954929577462 -2.213429295774647 -1.4808029577464787
C 0.5129345070422537 -1.5763292957746469 -0.13022295774647863
H -0.6401854929577462 -1.7032692957746463 1.6609470422535213
C -0.6547954929577462 -1.9962392957746466 -2.1933129577464787
H -2.7578654929577464 -2.4351492957746466 -2.026182957746479
C 0.5308845070422537 -1.645769295774647 -1.5261029577464789
H 1.4044045070422537 -1.2610992957746463 0.41551704225352126
H -0.6795654929577464 -2.0467992957746466 -3.2793129577464786
C 1.7843245070422535 -1.2521692957746469 -2.2771629577464787
H 1.4981245070422535 -0.9384492957746469 -3.290282957746479
H 2.241984507042254 -0.38631929577464685 -1.8135029577464787
C 0.9385645070422537 2.0647807042253534 1.9815670422535212
H 1.0508945070422537 1.5807407042253532 2.9609770422535213
H 1.6053245070422537 1.5496207042253536 1.3096170422535214
C 3.9676945070422533 -1.6881692957746468 -3.314052957746479
H 4.795084507042254 -2.398849295774647 -3.4044129577464783
H 3.548404507042253 -1.4816192957746468 -4.303802957746479
H 4.307714507042253 -0.7637192957746466 -2.851282957746479
C 2.344694507042253 -3.565079295774647 -3.101282957746479
H 1.6334345070422536 -4.047909295774646 -2.4251929577464786
H 1.8561845070422536 -3.293109295774647 -4.041792957746479
H 3.1808045070422537 -4.243519295774647 -3.298122957746479
C 3.5156645070422536 -2.648489295774647 -1.1110629577464786
H 3.9311845070422535 -1.748249295774647 -0.6771029577464787
H 2.767184507042254 -3.1044092957746465 -0.45972295774647876
H 4.319224507042254 -3.371819295774647 -1.2863129577464787
C 2.963994507042253 3.381090704225353 2.401027042253521
H 3.3337945070422537 4.369820704225353 2.6912870422535216
H 3.120994507042253 2.671350704225353 3.2183370422535216
H 3.4665445070422534 3.0664207042253535 1.4881370422535212
C 1.2973745070422538 4.282440704225354 0.8488370422535213
H 1.7592145070422538 3.7367207042253527 0.02653704225352116
H 0.23311450704225378 4.4484607042253534 0.6605570422535213
H 1.7921845070422535 5.251370704225354 0.9736770422535213
C 0.7724845070422537 4.194670704225353 3.2772470422535216
H -0.2956954929577462 4.278220704225354 3.057857042253521
H 0.9298945070422537 3.612620704225354 4.190337042253521
H 1.2046345070422537 5.193640704225353 3.3918370422535213
N 2.876084507042253 -2.324759295774647 -2.4576629577464786
N 1.4527845070422536 3.504690704225353 2.1388470422535213
C -3.593905492957746 -3.637819295774647 0.8297870422535213
H -2.8952554929577463 -1.8680692957746468 1.7595270422535212
H -5.022615492957747 -1.2402792957746467 1.1579970422535213
H -4.898275492957747 -1.7933092957746464 -0.48931295774647876
H -3.883675492957746 0.07871070422535364 -1.2758929577464788
H -3.8751654929577466 -4.038529295774646 -0.1505529577464788
H -4.4603554929577465 -3.7321892957746465 1.4932570422535212
H -2.7953554929577464 -4.271929295774647 1.2313670422535212
H -5.648775492957746 1.147700704225353 0.9733970422535213
H -6.189795492957747 0.5254307042253537 -0.5943629577464788
H -5.2178854929577465 2.002970704225354 -0.5139729577464787
C 3.6710445070422537 1.0263707042253536 -0.27764295774647874
O 2.7356545070422538 1.6631507042253526 -0.7327029577464788
O 3.650814507042253 0.3883007042253537 0.7790570422535212
O 4.756604507042254 0.8696707042253538 -0.8334829577464786
O 0.9266216578426704 -6.310761477516313 -13.762575606954735
H 0.9151148211885454 -5.959084967654393 -14.66543693740452
H 1.4024879993293409 -5.636471010350093 -13.254790676862424
O 2.105765428495909 4.685570528449893 -5.296128105491065
H 1.34834128646531 5.122995380049072 -5.713183887338825
H 1.9097297671733717 3.740969698571427 -5.387019447118033
O 2.1698853162649336 -8.487252802509452 1.4093289410424792
H 2.372861389930197 -8.553722080718563 0.4641570490176505
H 1.286728269526845 -8.089134564776357 1.4316323910256665
O -8.075475299720965 -4.285616572281655 -12.72976024384491
H -8.720922355498535 -3.924180801636235 -13.355643330999388
H -8.617288965675499 -4.767228539385046 -12.086759614896767
O 9.832477238146764 3.6856564291613454 11.341394070835438
H 10.123398415502578 3.429237027667922 12.229415081850188
H 10.146589091700074 4.597392687117827 11.246353638992897
O -8.579337079510157 -8.594972188474982 -2.3741439205368815
H -8.05305874961746 -8.093465730118838 -3.0148386595604153
H -8.176390526364212 -8.378675436792673 -1.5198537269729613
O 9.905442466971893 -0.41399675545159464 -0.5858578551975246
H 9.549337919007229 -0.03691318235852181 -1.404371683255575
H 9.579031027910919 0.17982579980406355 0.10681254955482533
O 2.264892066939156 -0.29566958833458024 3.779798825516079
H 3.146945589724148 -0.6950833597576584 3.7421480746579556
H 1.7848473282873196 -0.8478350180275639 4.415119477978009
O -6.392621181701884 10.793302804641135 -1.1672538874269165
H -6.397804376406694 10.889423719726468 -0.20304371268501342
H -7.2084164161276 10.306551033684977 -1.3583370977289555
O -2.233030940998057 -14.655702792064226 -3.569832751284201
H -2.9442750673258553 -15.089388937697121 -4.064823131746576
H -2.4808896162901997 -14.785171020856836 -2.642057994613312
O 11.24624777268459 6.002987010034402 0.22431979018908166
H 11.176718233135713 5.264123365728224 -0.3987480352944015
H 12.089478471598795 6.422606071740107 -0.003372492863917387
O 14.874626073593374 5.805193082448028 1.3241312752161982
H 15.3531243628718 5.984480086131974 2.1474555821376295
H 15.562132016076205 5.837591183160304 0.642040455441419
O 9.184696802806362 -0.09825963530535597 3.194264935467007
H 9.791170891845711 0.38392045801754104 2.6123208712932975
H 8.924524161688169 -0.8718297564611883 2.671903557904945
O 1.2550898059539932 8.296936560765197 9.277465298274313
H 0.6044996932816362 7.585464496557012 9.374971011154718
H 0.7310167288728904 9.053337131413596 8.973874239609007
O -6.8795207125798985 -3.314604978831741 -9.34865434937176
H -7.408043674974469 -3.748530093953962 -10.035196285154152
H -6.17015533639275 -3.948331643838257 -9.163848447337804
O 0.9070708694068994 15.33069542679394 -1.2084367135920169
H 1.112061544936063 15.930849423425094 -1.941076707158947
H 1.6261311888239627 14.681487332901115 -1.229485517925608
O -4.422801426834562 -6.15437874638689 -2.2944416068179745
H -3.9744604374344172 -5.862523804476355 -3.102388639120277
H -3.9285193666589855 -6.942823481193953 -2.024252618434641
O 0.7539678281459636 -3.740286098351551 11.856597705254112
H 1.269189497025363 -3.328121117971102 12.566269472879902
H 0.6744748793549888 -3.0421944267493783 11.18928156321033
O 4.62466127317955 10.60254940906066 -1.9345289052056351
H 4.381920558026794 11.276639549897876 -2.5869450179229654
H 4.1282695747842935 9.818188805204965 -2.2126218198643883
O 4.349363513184179 -5.335276217468014 4.657054398060281
H 4.220740919477586 -5.372076476237426 3.6973308304416177
H 3.772513780983491 -6.035476106051735 4.9975341284222194
O -5.616721582309895 0.9842579028949414 -3.3857177296688863
H -5.833822324763054 0.07383153827271216 -3.636632972583779
H -6.003253191951984 1.520762301267524 -4.094038482982219
O -2.8572360719158656 3.5203024240404632 5.862770653975881
H -3.5033564859625397 2.8117786452762417 6.002376607924212
H -2.490017843815831 3.679417964011579 6.745264258593371
O -0.1583101462340886 2.2634892973328142 6.049151729597587
H -0.0521027345164283 2.1909714463740966 7.009583145102393
H 0.2616627969200863 1.4605038580852956 5.705933059250403
O 0.5717113484605276 -9.125827000456791 -5.368389329852871
H 1.3843025724549785 -8.96466532491258 -4.865706752153002
H 0.874158242413797 -9.194706535595301 -6.286399912731479
C 6.220355121703692 1.330926328505816 -6.033243451501938
O 6.284659709260406 1.555962663592802 -7.207143713538614
O 6.156050534146978 1.1058899934188293 -4.859343189465261