146

C -5.3564454929577465 1.0091607042253532 -0.0734429577464788
C -4.079135492957747 0.16955070422535368 -0.19788295774647868
C -4.333545492957747 -1.2789292957746463 0.3017270422535212
C -3.1403854929577464 -2.1745492957746464 0.7330270422535212
C -2.905235492957746 0.902300704225353 0.41966704225352136
C -2.7423854929577463 1.056130704225354 1.8024770422535212
C -1.8861754929577463 1.3499307042253532 -0.4326129577464788
C -1.5304554929577463 1.5279207042253526 2.3254170422535214
H -3.5237954929577464 0.7301007042253529 2.484817042253521
C -0.6776454929577462 1.8010507042253527 0.08546704225352131
H -1.9759254929577463 1.2426607042253535 -1.5115229577464788
C -0.4680254929577463 1.8513207042253539 1.4698070422535212
H -1.3950654929577464 1.5446707042253527 3.404047042253521
H 0.1461845070422536 1.9972507042253538 -0.6030529577464789
C -1.8679654929577463 -2.0866092957746467 -0.08765295774647863
C -0.6628654929577462 -1.814079295774647 0.5787970422535212
C -1.8438954929577462 -2.213429295774647 -1.4808029577464787
C 0.5129345070422537 -1.5763292957746469 -0.13022295774647863
H -0.6401854929577462 -1.7032692957746463 1.6609470422535213
C -0.6547954929577462 -1.9962392957746466 -2.1933129577464787
H -2.7578654929577464 -2.4351492957746466 -2.026182957746479
C 0.5308845070422537 -1.645769295774647 -1.5261029577464789
H 1.4044045070422537 -1.2610992957746463 0.41551704225352126
H -0.6795654929577464 -2.0467992957746466 -3.2793129577464786
C 1.7843245070422535 -1.2521692957746469 -2.2771629577464787
H 1.4981245070422535 -0.9384492957746469 -3.290282957746479
H 2.241984507042254 -0.38631929577464685 -1.8135029577464787
C 0.9385645070422537 2.0647807042253534 1.9815670422535212
H 1.0508945070422537 1.5807407042253532 2.9609770422535213
H 1.6053245070422537 1.5496207042253536 1.3096170422535214
C 3.9676945070422533 -1.6881692957746468 -3.314052957746479
H 4.795084507042254 -2.398849295774647 -3.4044129577464783
H 3.548404507042253 -1.4816192957746468 -4.303802957746479
H 4.307714507042253 -0.7637192957746466 -2.851282957746479
C 2.344694507042253 -3.565079295774647 -3.101282957746479
H 1.6334345070422536 -4.047909295774646 -2.4251929577464786
H 1.8561845070422536 -3.293109295774647 -4.041792957746479
H 3.1808045070422537 -4.243519295774647 -3.298122957746479
C 3.5156645070422536 -2.648489295774647 -1.1110629577464786
H 3.9311845070422535 -1.748249295774647 -0.6771029577464787
H 2.767184507042254 -3.1044092957746465 -0.45972295774647876
H 4.319224507042254 -3.371819295774647 -1.2863129577464787
C 2.963994507042253 3.381090704225353 2.401027042253521
H 3.3337945070422537 4.369820704225353 2.6912870422535216
H 3.120994507042253 2.671350704225353 3.2183370422535216
H 3.4665445070422534 3.0664207042253535 1.4881370422535212
C 1.2973745070422538 4.282440704225354 0.8488370422535213
H 1.7592145070422538 3.7367207042253527 0.02653704225352116
H 0.23311450704225378 4.4484607042253534 0.6605570422535213
H 1.7921845070422535 5.251370704225354 0.9736770422535213
C 0.7724845070422537 4.194670704225353 3.2772470422535216
H -0.2956954929577462 4.278220704225354 3.057857042253521
H 0.9298945070422537 3.612620704225354 4.190337042253521
H 1.2046345070422537 5.193640704225353 3.3918370422535213
N 2.876084507042253 -2.324759295774647 -2.4576629577464786
N 1.4527845070422536 3.504690704225353 2.1388470422535213
C -3.593905492957746 -3.637819295774647 0.8297870422535213
H -2.8952554929577463 -1.8680692957746468 1.7595270422535212
H -5.022615492957747 -1.2402792957746467 1.1579970422535213
H -4.898275492957747 -1.7933092957746464 -0.48931295774647876
H -3.883675492957746 0.07871070422535364 -1.2758929577464788
H -3.8751654929577466 -4.038529295774646 -0.1505529577464788
H -4.4603554929577465 -3.7321892957746465 1.4932570422535212
H -2.7953554929577464 -4.271929295774647 1.2313670422535212
H -5.648775492957746 1.147700704225353 0.9733970422535213
H -6.189795492957747 0.5254307042253537 -0.5943629577464788
H -5.2178854929577465 2.002970704225354 -0.5139729577464787
C 3.6710445070422537 1.0263707042253536 -0.27764295774647874
O 2.7356545070422538 1.6631507042253526 -0.7327029577464788
O 3.650814507042253 0.3883007042253537 0.7790570422535212
O 4.756604507042254 0.8696707042253538 -0.8334829577464786
O 0.06538125595680427 1.6053190303994023 -4.514060559601345
H 0.5645576105226199 2.041034217948538 -5.221126751185558
H -0.579484650257089 1.0574138300004263 -4.986193802106775
O -11.146491944126772 -0.9534214281412141 -2.287470557978726
H -10.560633216554736 -0.3201089486371851 -1.846276483299416
H -10.69244053539658 -1.8032522473684356 -2.184578181090463
O -4.234508277730559 8.087602598353719 7.88331967993947
H -4.188955114085413 8.273318587879459 8.833268014016854
H -5.151255475329352 7.806571460631229 7.743469690217762
O -7.263636288601997 -5.489012912454359 2.707578116932539
H -7.915416487252015 -5.1458763504979075 3.337186907687918
H -7.234776771299147 -4.816393102931395 2.010647945108749
O 2.4494291424682286 -2.6594599867297166 4.806735858134819
H 2.294564970499463 -1.702914089281232 4.80883138071947
H 3.4059300007312285 -2.7414207558636536 4.675014619281254
O -1.010742235709119 -6.461865179380783 -7.390185380552619
H -1.7824778672052997 -6.2257303672154265 -7.926498556283763
H -0.4027528252543342 -6.872700823298705 -8.02305574228667
O -10.04370469690189 5.849788780092021 9.563643312093284
H -10.029569242202452 6.5808470036242515 10.199506048559526
H -9.163190292369228 5.453178360893245 9.64337099294166
O 5.297025542918013 -3.303484784062537 6.418482533737043
H 5.545831969339341 -4.211274488146028 6.6486576241170745
H 6.0323514317020805 -2.9911469181054646 5.870118750219837
O 1.522175376748656 11.977759499791734 9.22585494183034
H 1.4338238331283018 12.192616371162881 10.166598204609567
H 1.19639170893491 11.06739656822702 9.162087560523606
O -5.752399294875708 4.258293398412315 7.313837173906519
H -6.111768269728011 4.994394727964854 6.796173065198382
H -5.04576387615077 3.9019437159941504 6.7546920825895125
O 5.7796044265144495 1.4548986768726149 -7.032838753364663
H 6.144347045950339 1.6760994276306616 -7.902896456239089
H 4.83361997942581 1.3289024088679529 -7.200768234443178
O -7.3776250183838785 7.7052403471731905 4.30219567957174
H -7.885876430551499 8.510036517627212 4.48371973569699
H -7.3297735720350765 7.25984181842226 5.161435072272537
O 10.390479942145388 -5.353270130849454 6.937375334008989
H 10.149966706906438 -5.559088205375045 6.021537105513654
H 9.998886879909504 -6.07612395476963 7.450307266289192
O -9.68581724564146 -3.081784309050051 5.789994956952585
H -8.889367734337647 -3.5332357925470594 5.472462138345958
H -9.399492244976493 -2.165105940224602 5.919148766117157
O -1.8152454971767196 -1.4853742928443485 12.684820058635358
H -1.5871871328555647 -1.6874628169831887 13.60466622391222
H -1.5435459283861306 -0.5618967195781799 12.573777452877772
O 10.064598733882905 -2.925124033658146 2.656743265598759
H 11.033508363331425 -2.915021662235835 2.6478309733246728
H 9.834552441768404 -2.550313755254289 3.520200214720828
O -10.554186336657967 -1.8868944866302966 9.986805207090022
H -10.618163476863137 -2.4861066882014495 10.745632605066284
H -10.466695293394519 -2.4808995380585186 9.226236169772285
O -9.086624281862019 -0.802130266684649 3.668509843584697
H -9.094353813696015 0.16638628592372198 3.6982301827689166
H -10.02159723492447 -1.0460044512526427 3.7413995098136863
O -3.4718492436778643 -12.020542023527723 7.783482830960498
H -3.1716392091410732 -12.939029138838649 7.855751157848792
H -2.8666910451922 -11.530440053845227 8.360150463500183
O -7.463186980515935 2.0360539126280477 -8.1650866424011
H -7.657047016294105 2.052251102350284 -7.215811500793995
H -6.698716642985993 1.445072549960238 -8.23780580298587
O 4.548386545585914 7.571477678463404 1.1930243948598163
H 5.1415853165881265 8.146998019615642 1.6988493763519108
H 5.143838029325261 6.932548462546772 0.7732995661198805
O -1.2554927660045951 -4.957316411335862 -9.167452744015497
H -0.8526736618521751 -4.109549132404412 -9.408273770927622
H -1.3560647989401131 -5.417592411396969 -10.01420726231402
O 1.1401022733633002 7.407160783946997 1.2245670988354456
H 1.3288803699179286 7.563046361863689 2.1621330291885013
H 1.127826914990214 6.441453381518228 1.1456971250108625
O 8.227240571404565 4.941220886314068 -1.0063633526791516
H 8.883497380640895 5.35256564425524 -0.42404913565773095
H 7.811156210831101 5.691458659750056 -1.4568952966031974
C 6.781577776275649 4.934877412193458 1.6551619291523463
O 7.562593240973557 4.3655380934817 0.9489850098385377
O 6.00056231157774 5.504216730905216 2.3613388484661546