146

C -5.3564454929577465 1.0091607042253532 -0.0734429577464788
C -4.079135492957747 0.16955070422535368 -0.19788295774647868
C -4.333545492957747 -1.2789292957746463 0.3017270422535212
C -3.1403854929577464 -2.1745492957746464 0.7330270422535212
C -2.905235492957746 0.902300704225353 0.41966704225352136
C -2.7423854929577463 1.056130704225354 1.8024770422535212
C -1.8861754929577463 1.3499307042253532 -0.4326129577464788
C -1.5304554929577463 1.5279207042253526 2.3254170422535214
H -3.5237954929577464 0.7301007042253529 2.484817042253521
C -0.6776454929577462 1.8010507042253527 0.08546704225352131
H -1.9759254929577463 1.2426607042253535 -1.5115229577464788
C -0.4680254929577463 1.8513207042253539 1.4698070422535212
H -1.3950654929577464 1.5446707042253527 3.404047042253521
H 0.1461845070422536 1.9972507042253538 -0.6030529577464789
C -1.8679654929577463 -2.0866092957746467 -0.08765295774647863
C -0.6628654929577462 -1.814079295774647 0.5787970422535212
C -1.8438954929577462 -2.213429295774647 -1.4808029577464787
C 0.5129345070422537 -1.5763292957746469 -0.13022295774647863
H -0.6401854929577462 -1.7032692957746463 1.6609470422535213
C -0.6547954929577462 -1.9962392957746466 -2.1933129577464787
H -2.7578654929577464 -2.4351492957746466 -2.026182957746479
C 0.5308845070422537 -1.645769295774647 -1.5261029577464789
H 1.4044045070422537 -1.2610992957746463 0.41551704225352126
H -0.6795654929577464 -2.0467992957746466 -3.2793129577464786
C 1.7843245070422535 -1.2521692957746469 -2.2771629577464787
H 1.4981245070422535 -0.9384492957746469 -3.290282957746479
H 2.241984507042254 -0.38631929577464685 -1.8135029577464787
C 0.9385645070422537 2.0647807042253534 1.9815670422535212
H 1.0508945070422537 1.5807407042253532 2.9609770422535213
H 1.6053245070422537 1.5496207042253536 1.3096170422535214
C 3.9676945070422533 -1.6881692957746468 -3.314052957746479
H 4.795084507042254 -2.398849295774647 -3.4044129577464783
H 3.548404507042253 -1.4816192957746468 -4.303802957746479
H 4.307714507042253 -0.7637192957746466 -2.851282957746479
C 2.344694507042253 -3.565079295774647 -3.101282957746479
H 1.6334345070422536 -4.047909295774646 -2.4251929577464786
H 1.8561845070422536 -3.293109295774647 -4.041792957746479
H 3.1808045070422537 -4.243519295774647 -3.298122957746479
C 3.5156645070422536 -2.648489295774647 -1.1110629577464786
H 3.9311845070422535 -1.748249295774647 -0.6771029577464787
H 2.767184507042254 -3.1044092957746465 -0.45972295774647876
H 4.319224507042254 -3.371819295774647 -1.2863129577464787
C 2.963994507042253 3.381090704225353 2.401027042253521
H 3.3337945070422537 4.369820704225353 2.6912870422535216
H 3.120994507042253 2.671350704225353 3.2183370422535216
H 3.4665445070422534 3.0664207042253535 1.4881370422535212
C 1.2973745070422538 4.282440704225354 0.8488370422535213
H 1.7592145070422538 3.7367207042253527 0.02653704225352116
H 0.23311450704225378 4.4484607042253534 0.6605570422535213
H 1.7921845070422535 5.251370704225354 0.9736770422535213
C 0.7724845070422537 4.194670704225353 3.2772470422535216
H -0.2956954929577462 4.278220704225354 3.057857042253521
H 0.9298945070422537 3.612620704225354 4.190337042253521
H 1.2046345070422537 5.193640704225353 3.3918370422535213
N 2.876084507042253 -2.324759295774647 -2.4576629577464786
N 1.4527845070422536 3.504690704225353 2.1388470422535213
C -3.593905492957746 -3.637819295774647 0.8297870422535213
H -2.8952554929577463 -1.8680692957746468 1.7595270422535212
H -5.022615492957747 -1.2402792957746467 1.1579970422535213
H -4.898275492957747 -1.7933092957746464 -0.48931295774647876
H -3.883675492957746 0.07871070422535364 -1.2758929577464788
H -3.8751654929577466 -4.038529295774646 -0.1505529577464788
H -4.4603554929577465 -3.7321892957746465 1.4932570422535212
H -2.7953554929577464 -4.271929295774647 1.2313670422535212
H -5.648775492957746 1.147700704225353 0.9733970422535213
H -6.189795492957747 0.5254307042253537 -0.5943629577464788
H -5.2178854929577465 2.002970704225354 -0.5139729577464787
C 3.6710445070422537 1.0263707042253536 -0.27764295774647874
O 2.7356545070422538 1.6631507042253526 -0.7327029577464788
O 3.650814507042253 0.3883007042253537 0.7790570422535212
O 4.756604507042254 0.8696707042253538 -0.8334829577464786
O -5.1474446914250604 -0.8951023978728914 -9.290306997558883
H -5.65143947004387 -0.5831488075093525 -10.05688483280086
H -4.963815152178462 -0.08788380146864694 -8.786679879310427
O -1.8764769451802463 -7.497156914547992 3.1514456848747505
H -1.4461544797930703 -8.059762683858002 3.8127056042878333
H -1.1639359457462373 -6.922422659481429 2.8337543181701075
O 6.516813743827662 -0.861724771282721 -10.40243591235269
H 6.269533052090582 -1.3274678545620642 -11.215395318947806
H 5.821044283603997 -1.1040019975553763 -9.77301669740156
O 2.463650155060589 -2.8839739258179606 -6.6483876878922095
H 1.913552432045194 -2.9317173939441052 -7.444679351345098
H 3.0721086896250216 -3.632657615688532 -6.739012676374898
O -2.7227128397384868 -3.967119141702139 -3.951769290063216
H -2.774199604935679 -4.912212847278556 -4.159409261141442
H -1.7995206892167412 -3.7370684567612615 -4.135494301624702
O -2.7712984589203815 7.094913684155799 7.277646809494347
H -3.2510405838399077 6.805901748524135 6.486895931189341
H -3.3732242605597715 7.726883480394606 7.698671096516673
O 5.647715573717736 5.848916688775138 -5.19708868799457
H 5.810163997824613 6.317685222557046 -4.364722225346563
H 5.648202511735295 6.550932991740844 -5.865021931336844
O -1.6970249156611987 -0.9112734092340323 3.4232249494091196
H -1.5093512500189017 -1.7429083471977378 2.9626500021068494
H -2.2016329203635845 -0.3946230221128427 2.7771560031055516
O -0.8514370762517609 7.419434395609798 3.253091718217399
H -0.8026131353275059 8.362698854247885 3.469507384847204
H 0.0399631516552168 7.089582195970545 3.4416788449798963
O 9.267489024651283 0.37331046171197313 -2.021072918029858
H 9.527630673912158 0.6024673698824814 -1.1162078503774668
H 8.783233490454819 -0.46007607899397174 -1.9214466380116129
O -8.553767105953586 -9.174207631830495 -1.3218154256454757
H -8.70871916571034 -9.614202284399665 -0.47248514725686563
H -7.83535684462839 -8.551322195206195 -1.1351007407274905
O 6.2955967081400335 7.672457450981937 -9.722966817894475
H 6.731087894397827 7.479489614377096 -10.566814077549816
H 5.362016359913994 7.474314683849278 -9.890684203812446
O -1.3879905500756315 -4.783664997447908 -2.493518929220935
H -0.5741369403286716 -5.26737748374517 -2.2870440169386788
H -1.422694054321087 -4.0863512705490175 -1.8215731149088998
O -0.6436027371352445 4.481395809856256 -1.4177077111827017
H 0.266369771593761 4.523245199845371 -1.0873048982180116
H -1.0373458417314416 5.317219039863268 -1.12559841645966
O 3.4727496847271073 -6.015614077244954 -12.68430633301029
H 3.2056069233971987 -6.661488830268479 -13.355460492183749
H 3.7915707665400054 -6.560346468702229 -11.949063731014942
O 9.455789065505057 5.904477341185844 -5.561551918210173
H 9.493728782956815 6.029128283855738 -6.521755061941326
H 8.589316113040715 6.260292280278345 -5.313394113444082
O -0.22020479829929052 4.506357304014445 14.632428483809438
H -0.02813715997769828 4.215004491947887 15.536414610976486
H 0.18509725447182257 5.384873733505278 14.57856687007384
O 5.272250305801441 3.045602949497093 -8.396943399954958
H 4.471654161825246 3.4703335746625514 -8.739896847520377
H 5.245265478104374 2.1543809917691594 -8.776360301842248
O 10.035409779794607 4.172980675683619 2.6334586731304768
H 10.78111793707871 4.322814618334919 2.0330950410794406
H 9.885557903819043 3.216791315771191 2.586466465724734
O -8.591513130762866 -4.149583770942138 -3.2849901850159617
H -8.226477229152037 -4.429512657586501 -2.4321385180437862
H -8.45886245283177 -4.918188884453211 -3.859978812233103
O 3.283940259412014 6.966678891524597 2.896417783265882
H 3.296982209567247 6.934816591376608 1.9280263034058873
H 4.114718849617776 6.540680189089573 3.1558286232078587
O 6.7948160423808375 -2.2316385854056326 4.522480759110515
H 6.008144864560206 -2.6168489171122205 4.936882514937881
H 7.485737394322074 -2.330786823405574 5.19461114574186
O -7.144130587358142 10.688105074172226 7.143159777673855
H -7.14845537510668 10.63905175914742 6.175408556855193
H -6.383142156248727 10.146729651736004 7.4015610238001734
O 4.837494990947156 4.7730913353412685 7.674335494017464
H 5.249490840096282 4.522492514800202 6.833843371313559
H 5.024166834014279 5.720668594534326 7.753157478045379
C -2.8190169082723355 4.378438188565054 7.3502429780280805
O -2.9618371163427684 3.622319551925827 8.267142783237762
O -2.6761967002019036 5.134556825204283 6.433343172818398