146

C -5.3564454929577465 1.0091607042253532 -0.0734429577464788
C -4.079135492957747 0.16955070422535368 -0.19788295774647868
C -4.333545492957747 -1.2789292957746463 0.3017270422535212
C -3.1403854929577464 -2.1745492957746464 0.7330270422535212
C -2.905235492957746 0.902300704225353 0.41966704225352136
C -2.7423854929577463 1.056130704225354 1.8024770422535212
C -1.8861754929577463 1.3499307042253532 -0.4326129577464788
C -1.5304554929577463 1.5279207042253526 2.3254170422535214
H -3.5237954929577464 0.7301007042253529 2.484817042253521
C -0.6776454929577462 1.8010507042253527 0.08546704225352131
H -1.9759254929577463 1.2426607042253535 -1.5115229577464788
C -0.4680254929577463 1.8513207042253539 1.4698070422535212
H -1.3950654929577464 1.5446707042253527 3.404047042253521
H 0.1461845070422536 1.9972507042253538 -0.6030529577464789
C -1.8679654929577463 -2.0866092957746467 -0.08765295774647863
C -0.6628654929577462 -1.814079295774647 0.5787970422535212
C -1.8438954929577462 -2.213429295774647 -1.4808029577464787
C 0.5129345070422537 -1.5763292957746469 -0.13022295774647863
H -0.6401854929577462 -1.7032692957746463 1.6609470422535213
C -0.6547954929577462 -1.9962392957746466 -2.1933129577464787
H -2.7578654929577464 -2.4351492957746466 -2.026182957746479
C 0.5308845070422537 -1.645769295774647 -1.5261029577464789
H 1.4044045070422537 -1.2610992957746463 0.41551704225352126
H -0.6795654929577464 -2.0467992957746466 -3.2793129577464786
C 1.7843245070422535 -1.2521692957746469 -2.2771629577464787
H 1.4981245070422535 -0.9384492957746469 -3.290282957746479
H 2.241984507042254 -0.38631929577464685 -1.8135029577464787
C 0.9385645070422537 2.0647807042253534 1.9815670422535212
H 1.0508945070422537 1.5807407042253532 2.9609770422535213
H 1.6053245070422537 1.5496207042253536 1.3096170422535214
C 3.9676945070422533 -1.6881692957746468 -3.314052957746479
H 4.795084507042254 -2.398849295774647 -3.4044129577464783
H 3.548404507042253 -1.4816192957746468 -4.303802957746479
H 4.307714507042253 -0.7637192957746466 -2.851282957746479
C 2.344694507042253 -3.565079295774647 -3.101282957746479
H 1.6334345070422536 -4.047909295774646 -2.4251929577464786
H 1.8561845070422536 -3.293109295774647 -4.041792957746479
H 3.1808045070422537 -4.243519295774647 -3.298122957746479
C 3.5156645070422536 -2.648489295774647 -1.1110629577464786
H 3.9311845070422535 -1.748249295774647 -0.6771029577464787
H 2.767184507042254 -3.1044092957746465 -0.45972295774647876
H 4.319224507042254 -3.371819295774647 -1.2863129577464787
C 2.963994507042253 3.381090704225353 2.401027042253521
H 3.3337945070422537 4.369820704225353 2.6912870422535216
H 3.120994507042253 2.671350704225353 3.2183370422535216
H 3.4665445070422534 3.0664207042253535 1.4881370422535212
C 1.2973745070422538 4.282440704225354 0.8488370422535213
H 1.7592145070422538 3.7367207042253527 0.02653704225352116
H 0.23311450704225378 4.4484607042253534 0.6605570422535213
H 1.7921845070422535 5.251370704225354 0.9736770422535213
C 0.7724845070422537 4.194670704225353 3.2772470422535216
H -0.2956954929577462 4.278220704225354 3.057857042253521
H 0.9298945070422537 3.612620704225354 4.190337042253521
H 1.2046345070422537 5.193640704225353 3.3918370422535213
N 2.876084507042253 -2.324759295774647 -2.4576629577464786
N 1.4527845070422536 3.504690704225353 2.1388470422535213
C -3.593905492957746 -3.637819295774647 0.8297870422535213
H -2.8952554929577463 -1.8680692957746468 1.7595270422535212
H -5.022615492957747 -1.2402792957746467 1.1579970422535213
H -4.898275492957747 -1.7933092957746464 -0.48931295774647876
H -3.883675492957746 0.07871070422535364 -1.2758929577464788
H -3.8751654929577466 -4.038529295774646 -0.1505529577464788
H -4.4603554929577465 -3.7321892957746465 1.4932570422535212
H -2.7953554929577464 -4.271929295774647 1.2313670422535212
H -5.648775492957746 1.147700704225353 0.9733970422535213
H -6.189795492957747 0.5254307042253537 -0.5943629577464788
H -5.2178854929577465 2.002970704225354 -0.5139729577464787
C 3.6710445070422537 1.0263707042253536 -0.27764295774647874
O 2.7356545070422538 1.6631507042253526 -0.7327029577464788
O 3.650814507042253 0.3883007042253537 0.7790570422535212
O 4.756604507042254 0.8696707042253538 -0.8334829577464786
O 1.919846711816059 8.024458115889948 -8.362669323610866
H 1.6569130972663344 8.433207756081536 -9.200975355369595
H 1.9162164446649619 8.760292498117373 -7.732196066927925
O 6.761145318516698 1.4909762515203628 -13.067501739071973
H 6.590926280783798 1.4627625832401534 -14.021019869479286
H 6.009517682699964 1.9872798636391744 -12.71014957946696
O 5.783933850198161 -8.071011323504761 4.965025708099968
H 6.6587006262322035 -7.655679349580952 4.929673255800868
H 5.205114264840095 -7.3695197600471705 5.299449717859643
O -2.356212654617903 -5.679621584996353 -0.008890567430961394
H -2.1217402048904423 -6.147718717657761 0.8065081703734168
H -3.23971516911023 -6.013889137695948 -0.22487773000771938
O -9.487634869356341 -2.955390639523395 -10.35216574911703
H -9.367294278048139 -2.9022942481852088 -11.312200265272807
H -9.761213693694827 -2.0604654677457077 -10.100718919564043
O -0.3304254337516297 -11.275204647755746 2.6762705895336643
H -0.7168628575275755 -11.439241708813748 3.5496120559744067
H -0.08256802081311188 -12.157176258799048 2.360589224126853
O -5.138034523941185 -11.45085607722437 1.6263622115124812
H -5.029000466621419 -11.630884805414244 2.572231435174362
H -4.5216383598149825 -12.064204306141882 1.198785711650465
O 6.3479202830667045 -2.518622174923985 -7.415301317298093
H 6.625366090505319 -2.09525719164203 -8.241590172218334
H 5.766489399162231 -3.237817003579177 -7.704539748315982
O 6.272416645660415 3.993831804665895 6.665140687227422
H 6.1618886971006805 4.18226475519748 5.721083510653281
H 5.511030287207689 3.435480761936909 6.883078454825312
O 0.5813606915094347 2.051518996271505 -10.764388745362442
H 0.810921100386178 1.1124577324234035 -10.69780557694617
H 0.304355658296962 2.1599355143664143 -11.686601310056252
O 2.0054336255530525 -8.592637627362613 3.766056322754514
H 2.282611812859643 -8.571616525721906 4.694333071718552
H 2.839088453606694 -8.632241215349643 3.273701645939714
O 5.456540850135935 1.6857981458332303 0.11453684560953015
H 5.294694290035112 1.6544788038446727 1.0694149251049891
H 6.021952212715771 2.4641163756375755 -0.0016211008248134817
O -6.514345299558466 -0.6363516415942951 -6.478572786317514
H -5.5967253881518 -0.6563185951401045 -6.167860096109785
H -7.01614025080384 -1.0358811123540468 -5.752253315837007
O 5.264900374921275 6.717488769819642 2.654998129660434
H 5.352958351374108 5.761756163508961 2.7883710463925317
H 5.729293669838776 7.103349649360683 3.4128979868813474
O -2.991021124688017 12.838612263486166 -0.23340870708198747
H -2.4019934628368538 12.54888972501113 0.4793848262597038
H -3.787471790813305 13.139911115797336 0.2290275396856698
O -10.63109906708938 -4.836532222108163 -6.184831806840972
H -10.37493623274977 -5.055027913244677 -5.276202293696106
H -9.787562246934481 -4.674147659787479 -6.633205346719141
O 2.5052128180758313 -5.902942187120348 -0.38744326770051485
H 2.403998843738748 -5.214016794486375 -1.0613163207921334
H 3.053799480848398 -5.485463223105532 0.2935309846271137
O 10.36120731428628 -3.3058639345742393 -1.814378987581919
H 10.28464631919114 -3.496881093879056 -0.8674797237839365
H 10.897928797498405 -2.499781601742722 -1.8478941551254768
O 3.8443501437383976 10.218955689722547 -4.955867606585051
H 3.932178251346464 10.15435859258239 -3.9930172571251514
H 2.8876977122092278 10.272195101307826 -5.100586764278083
O -6.262631754048604 2.326128229513647 6.246419981342033
H -6.931142632129042 3.014232132275255 6.3827049100479165
H -5.420912618005613 2.7891792102020054 6.373126846201796
O -0.7858796533902401 8.134094863909127 -9.708477561309262
H -1.1236674640029287 7.242043493564066 -9.879097327359347
H -0.006155517607555172 7.986722164462391 -9.152353920528073
O 6.1304758407123945 1.0891715126352421 -7.275833952639914
H 6.1577641707179955 0.9347832399023016 -8.23206978400582
H 7.016107857298176 0.8384733634717761 -6.972901099512007
O -4.682483510148144 10.703304706848527 2.594177467206397
H -4.528329891702391 10.734224777813393 1.6380143179313318
H -3.9370480122685834 11.19716369935935 2.9675287204750154
O -2.312049345959202 -8.812158105063777 -7.379428120526061
H -2.8538532372325887 -8.547422747062727 -6.620922292911617
H -2.869342359868688 -8.611880189459066 -8.146419122734507
C -3.545113478532103 1.9707556811672027 9.68123314809174
O -3.1759617163295113 1.8830956782401984 10.81651327107882
O -3.9142652407346956 2.058415684094207 8.54595302510466