146

C -5.3564454929577465 1.0091607042253532 -0.0734429577464788
C -4.079135492957747 0.16955070422535368 -0.19788295774647868
C -4.333545492957747 -1.2789292957746463 0.3017270422535212
C -3.1403854929577464 -2.1745492957746464 0.7330270422535212
C -2.905235492957746 0.902300704225353 0.41966704225352136
C -2.7423854929577463 1.056130704225354 1.8024770422535212
C -1.8861754929577463 1.3499307042253532 -0.4326129577464788
C -1.5304554929577463 1.5279207042253526 2.3254170422535214
H -3.5237954929577464 0.7301007042253529 2.484817042253521
C -0.6776454929577462 1.8010507042253527 0.08546704225352131
H -1.9759254929577463 1.2426607042253535 -1.5115229577464788
C -0.4680254929577463 1.8513207042253539 1.4698070422535212
H -1.3950654929577464 1.5446707042253527 3.404047042253521
H 0.1461845070422536 1.9972507042253538 -0.6030529577464789
C -1.8679654929577463 -2.0866092957746467 -0.08765295774647863
C -0.6628654929577462 -1.814079295774647 0.5787970422535212
C -1.8438954929577462 -2.213429295774647 -1.4808029577464787
C 0.5129345070422537 -1.5763292957746469 -0.13022295774647863
H -0.6401854929577462 -1.7032692957746463 1.6609470422535213
C -0.6547954929577462 -1.9962392957746466 -2.1933129577464787
H -2.7578654929577464 -2.4351492957746466 -2.026182957746479
C 0.5308845070422537 -1.645769295774647 -1.5261029577464789
H 1.4044045070422537 -1.2610992957746463 0.41551704225352126
H -0.6795654929577464 -2.0467992957746466 -3.2793129577464786
C 1.7843245070422535 -1.2521692957746469 -2.2771629577464787
H 1.4981245070422535 -0.9384492957746469 -3.290282957746479
H 2.241984507042254 -0.38631929577464685 -1.8135029577464787
C 0.9385645070422537 2.0647807042253534 1.9815670422535212
H 1.0508945070422537 1.5807407042253532 2.9609770422535213
H 1.6053245070422537 1.5496207042253536 1.3096170422535214
C 3.9676945070422533 -1.6881692957746468 -3.314052957746479
H 4.795084507042254 -2.398849295774647 -3.4044129577464783
H 3.548404507042253 -1.4816192957746468 -4.303802957746479
H 4.307714507042253 -0.7637192957746466 -2.851282957746479
C 2.344694507042253 -3.565079295774647 -3.101282957746479
H 1.6334345070422536 -4.047909295774646 -2.4251929577464786
H 1.8561845070422536 -3.293109295774647 -4.041792957746479
H 3.1808045070422537 -4.243519295774647 -3.298122957746479
C 3.5156645070422536 -2.648489295774647 -1.1110629577464786
H 3.9311845070422535 -1.748249295774647 -0.6771029577464787
H 2.767184507042254 -3.1044092957746465 -0.45972295774647876
H 4.319224507042254 -3.371819295774647 -1.2863129577464787
C 2.963994507042253 3.381090704225353 2.401027042253521
H 3.3337945070422537 4.369820704225353 2.6912870422535216
H 3.120994507042253 2.671350704225353 3.2183370422535216
H 3.4665445070422534 3.0664207042253535 1.4881370422535212
C 1.2973745070422538 4.282440704225354 0.8488370422535213
H 1.7592145070422538 3.7367207042253527 0.02653704225352116
H 0.23311450704225378 4.4484607042253534 0.6605570422535213
H 1.7921845070422535 5.251370704225354 0.9736770422535213
C 0.7724845070422537 4.194670704225353 3.2772470422535216
H -0.2956954929577462 4.278220704225354 3.057857042253521
H 0.9298945070422537 3.612620704225354 4.190337042253521
H 1.2046345070422537 5.193640704225353 3.3918370422535213
N 2.876084507042253 -2.324759295774647 -2.4576629577464786
N 1.4527845070422536 3.504690704225353 2.1388470422535213
C -3.593905492957746 -3.637819295774647 0.8297870422535213
H -2.8952554929577463 -1.8680692957746468 1.7595270422535212
H -5.022615492957747 -1.2402792957746467 1.1579970422535213
H -4.898275492957747 -1.7933092957746464 -0.48931295774647876
H -3.883675492957746 0.07871070422535364 -1.2758929577464788
H -3.8751654929577466 -4.038529295774646 -0.1505529577464788
H -4.4603554929577465 -3.7321892957746465 1.4932570422535212
H -2.7953554929577464 -4.271929295774647 1.2313670422535212
H -5.648775492957746 1.147700704225353 0.9733970422535213
H -6.189795492957747 0.5254307042253537 -0.5943629577464788
H -5.2178854929577465 2.002970704225354 -0.5139729577464787
C 3.6710445070422537 1.0263707042253536 -0.27764295774647874
O 2.7356545070422538 1.6631507042253526 -0.7327029577464788
O 3.650814507042253 0.3883007042253537 0.7790570422535212
O 4.756604507042254 0.8696707042253538 -0.8334829577464786
O 3.5338066994738835 13.141618096031007 3.3112398222143096
H 4.369969673287479 13.616107810696228 3.432311490246592
H 3.3779081858464686 12.719393136690702 4.169367832163199
O 5.499327863413747 0.37273416354423694 4.023515993074825
H 5.533058032375314 -0.16763984609657356 3.2198832645809317
H 4.62492744867129 0.788916392694727 3.98919091277561
O 2.108232098367194 10.876065642551536 -2.0992252102014906
H 2.9618170791161873 10.428631330093115 -1.9984156195138905
H 1.6197417899687778 10.631362952133173 -1.2989379141616024
O 3.691303637823382 3.3843720103253148 -12.432385287575686
H 4.5084335446254595 3.427387366596401 -12.951438031942288
H 3.6520343878921473 4.243558826056641 -11.986046978685106
O 4.0593756541344455 5.011963597134835 -1.0870615418634249
H 4.30205402487309 4.6341988931319005 -0.22835996757511978
H 3.878274640838793 5.943327436626094 -0.8902729096424893
O -4.343739416174117 -5.322184040624589 3.9717671126530294
H -4.579411988035286 -4.4634584229772685 4.353887655634652
H -4.9327360399495035 -5.407674917290516 3.207086635925602
O -8.295594185070991 11.525860576788212 5.5748645640307135
H -7.3563391415286485 11.753279521462103 5.645913446384265
H -8.54061007420784 11.259663467343124 6.473790733019889
O -5.065782112659351 -5.796364304193659 -3.7922863721416897
H -5.227532918264571 -5.246688687769628 -4.573734227404549
H -4.13192353859672 -5.640658859457484 -3.585825909996469
O -7.214709964383457 6.820484790954554 1.7761528395671726
H -6.529681010599457 7.503987361409664 1.8264213740480661
H -7.119600151997331 6.332181200904284 2.6077030015128577
O 6.278195876554659 4.386413565698854 -10.182637056085666
H 6.268971668679741 4.736134066689573 -9.278990088472826
H 7.123594481724732 3.9167411754341406 -10.243225739018444
O -3.0044591763714066 4.07974493839639 -3.3023435510085974
H -3.0522623541577594 3.7790925184950854 -2.3824031532104484
H -2.6587400721596435 3.311946620984572 -3.7818495353952355
O 6.644378387650492 -5.268951678056508 -1.5504566749953108
H 6.328044609949455 -5.052629478616404 -2.440459486235133
H 7.505781322506634 -4.828671349341747 -1.4947775921360633
O 5.904454197072573 4.594708347356562 9.985733672504374
H 6.374929066042495 5.159870432911903 10.61677453617207
H 6.425391931024946 3.7778093304128957 9.969552888807744
O 5.19135870075732 -7.4147463074622655 2.6918717039870805
H 5.166951008288239 -7.4090032162151855 1.72319289326019
H 4.766953117629044 -8.252186800432648 2.931736803664105
O 4.701128130935318 -0.7208817728174309 -8.076649506716858
H 4.681946259907744 -0.683308622822679 -7.108564969538749
H 4.2826564327052985 0.10878284014629225 -8.351422161972504
O -5.890311632790592 5.457775966271669 0.5851977392402745
H -4.964068615355611 5.1760863060485995 0.5440618075460002
H -6.390279304324742 4.63755903045515 0.45776756259250384
O -3.396666336756155 9.773373972263666 -6.3602290274289786
H -3.930664951628682 10.480656830395889 -5.968356861019398
H -3.1762792043948194 10.10794032037682 -7.242531024989776
O 6.652161665098083 -13.725552164346563 -2.2442848172026486
H 6.369012523704764 -14.55105230279199 -2.6654064647758977
H 6.05971439676946 -13.636095218633724 -1.482730069719787
O -1.7326801003818026 11.349140095195562 -5.86517279616964
H -2.585273666986103 11.557178459356683 -6.275991011591161
H -1.7192091696479828 10.380821680336517 -5.831410009406216
O -13.47187294676138 3.314338111043944 -4.93222024774045
H -14.089291383952938 2.945071125542589 -5.581376410566217
H -12.630892795984893 3.3640981121114786 -5.411008585728877
O 3.3315376828780305 8.824791920160688 8.07170205468834
H 4.129145547976478 8.977043933432421 8.600482136468848
H 3.619257754057326 8.200813528806698 7.388452413587909
O 2.553920653983841 9.590724716362086 6.208316570345956
H 1.6464345229978992 9.630599789833505 6.545727680838508
H 2.636205190840471 10.387658094422873 5.663258417277031
O -0.3196441782414592 3.3435574624432047 -5.293401329438508
H 0.06279914704569078 2.800817913962459 -5.9991904214187
H 0.44838896747398715 3.6323223375890468 -4.777938548760367
O -8.317908047301241 8.528151983033046 -8.564117222703263
H -8.66359874616614 9.426181636822314 -8.678170011066511
H -8.905705020171602 8.13333962143888 -7.902619027606046
C -0.873527196710219 -8.54759733133108 4.656434463229023
O -1.425915794635484 -8.923476175144883 5.6496112797905855
O -0.321138598784954 -8.171718487517277 3.6632576466674616