146

C -5.3564454929577465 1.0091607042253532 -0.0734429577464788
C -4.079135492957747 0.16955070422535368 -0.19788295774647868
C -4.333545492957747 -1.2789292957746463 0.3017270422535212
C -3.1403854929577464 -2.1745492957746464 0.7330270422535212
C -2.905235492957746 0.902300704225353 0.41966704225352136
C -2.7423854929577463 1.056130704225354 1.8024770422535212
C -1.8861754929577463 1.3499307042253532 -0.4326129577464788
C -1.5304554929577463 1.5279207042253526 2.3254170422535214
H -3.5237954929577464 0.7301007042253529 2.484817042253521
C -0.6776454929577462 1.8010507042253527 0.08546704225352131
H -1.9759254929577463 1.2426607042253535 -1.5115229577464788
C -0.4680254929577463 1.8513207042253539 1.4698070422535212
H -1.3950654929577464 1.5446707042253527 3.404047042253521
H 0.1461845070422536 1.9972507042253538 -0.6030529577464789
C -1.8679654929577463 -2.0866092957746467 -0.08765295774647863
C -0.6628654929577462 -1.814079295774647 0.5787970422535212
C -1.8438954929577462 -2.213429295774647 -1.4808029577464787
C 0.5129345070422537 -1.5763292957746469 -0.13022295774647863
H -0.6401854929577462 -1.7032692957746463 1.6609470422535213
C -0.6547954929577462 -1.9962392957746466 -2.1933129577464787
H -2.7578654929577464 -2.4351492957746466 -2.026182957746479
C 0.5308845070422537 -1.645769295774647 -1.5261029577464789
H 1.4044045070422537 -1.2610992957746463 0.41551704225352126
H -0.6795654929577464 -2.0467992957746466 -3.2793129577464786
C 1.7843245070422535 -1.2521692957746469 -2.2771629577464787
H 1.4981245070422535 -0.9384492957746469 -3.290282957746479
H 2.241984507042254 -0.38631929577464685 -1.8135029577464787
C 0.9385645070422537 2.0647807042253534 1.9815670422535212
H 1.0508945070422537 1.5807407042253532 2.9609770422535213
H 1.6053245070422537 1.5496207042253536 1.3096170422535214
C 3.9676945070422533 -1.6881692957746468 -3.314052957746479
H 4.795084507042254 -2.398849295774647 -3.4044129577464783
H 3.548404507042253 -1.4816192957746468 -4.303802957746479
H 4.307714507042253 -0.7637192957746466 -2.851282957746479
C 2.344694507042253 -3.565079295774647 -3.101282957746479
H 1.6334345070422536 -4.047909295774646 -2.4251929577464786
H 1.8561845070422536 -3.293109295774647 -4.041792957746479
H 3.1808045070422537 -4.243519295774647 -3.298122957746479
C 3.5156645070422536 -2.648489295774647 -1.1110629577464786
H 3.9311845070422535 -1.748249295774647 -0.6771029577464787
H 2.767184507042254 -3.1044092957746465 -0.45972295774647876
H 4.319224507042254 -3.371819295774647 -1.2863129577464787
C 2.963994507042253 3.381090704225353 2.401027042253521
H 3.3337945070422537 4.369820704225353 2.6912870422535216
H 3.120994507042253 2.671350704225353 3.2183370422535216
H 3.4665445070422534 3.0664207042253535 1.4881370422535212
C 1.2973745070422538 4.282440704225354 0.8488370422535213
H 1.7592145070422538 3.7367207042253527 0.02653704225352116
H 0.23311450704225378 4.4484607042253534 0.6605570422535213
H 1.7921845070422535 5.251370704225354 0.9736770422535213
C 0.7724845070422537 4.194670704225353 3.2772470422535216
H -0.2956954929577462 4.278220704225354 3.057857042253521
H 0.9298945070422537 3.612620704225354 4.190337042253521
H 1.2046345070422537 5.193640704225353 3.3918370422535213
N 2.876084507042253 -2.324759295774647 -2.4576629577464786
N 1.4527845070422536 3.504690704225353 2.1388470422535213
C -3.593905492957746 -3.637819295774647 0.8297870422535213
H -2.8952554929577463 -1.8680692957746468 1.7595270422535212
H -5.022615492957747 -1.2402792957746467 1.1579970422535213
H -4.898275492957747 -1.7933092957746464 -0.48931295774647876
H -3.883675492957746 0.07871070422535364 -1.2758929577464788
H -3.8751654929577466 -4.038529295774646 -0.1505529577464788
H -4.4603554929577465 -3.7321892957746465 1.4932570422535212
H -2.7953554929577464 -4.271929295774647 1.2313670422535212
H -5.648775492957746 1.147700704225353 0.9733970422535213
H -6.189795492957747 0.5254307042253537 -0.5943629577464788
H -5.2178854929577465 2.002970704225354 -0.5139729577464787
C 3.6710445070422537 1.0263707042253536 -0.27764295774647874
O 2.7356545070422538 1.6631507042253526 -0.7327029577464788
O 3.650814507042253 0.3883007042253537 0.7790570422535212
O 4.756604507042254 0.8696707042253538 -0.8334829577464786
O 0.032060351502404494 6.224222750830064 7.822772554029951
H 0.0735027429715398 6.708582860185704 6.984533226895801
H -0.30442156156090494 6.877638185692545 8.454270880207249
O 13.103716371740411 -3.675636978461193 -5.340525168900387
H 13.004122080945546 -3.76712896085175 -4.381005731213316
H 12.547708152206155 -4.38215668317046 -5.701976010603481
O -1.2017194203135944 -6.56308509972629 0.2402464698532487
H -1.9216079780784352 -6.88542375756966 0.8031191117172787
H -0.7475131096370913 -7.370423333527292 -0.04411869658722445
O 1.3695042746701152 10.812413368578728 -5.258835809939575
H 1.5135042714763012 10.187190590276899 -5.985009229524982
H 2.228728376808987 11.247072886460664 -5.150360051733925
O -8.393495745539445 -7.042282539792007 -7.235443936547009
H -9.079689458053853 -7.725217819743713 -7.194152906007962
H -7.898701414797856 -7.157447720255716 -6.410290922994525
O -8.979921859084635 13.282190403741081 -1.8688985721842228
H -9.765129002687488 13.53505861344994 -2.3773027097103556
H -8.311198807004711 13.100180167308544 -2.5461309530924927
O 2.09635466741169 -9.880939604575172 -4.60709595887788
H 2.5012609418936975 -10.573835850099423 -4.064036976148103
H 1.6109156070342534 -10.370790992123027 -5.287798890469418
O -0.20212585592582064 3.0265017889740005 -6.275822532441705
H -1.0080188691495497 3.130159794055848 -5.747846371881749
H 0.11561148279876426 3.9336692556284722 -6.398509595019325
O 7.202496883707253 8.894699362597628 -6.759504341700598
H 7.543904713591845 9.59820150178724 -6.187234483374009
H 6.3928177761214595 9.271297704657059 -7.135742797732359
O -6.517593011113982 7.933483477026645 4.397444948304473
H -6.313475415761762 7.80636310935253 3.458752359492765
H -6.792761175186299 8.860892381219777 4.453633472082595
O 5.533067282684968 -4.450356264199 4.954037751279542
H 5.8314032918006 -4.199354575116603 4.0669294520044525
H 5.984391182670674 -3.8233009769873076 5.538905555472554
O -4.622552499097991 -0.4308319190150538 9.544463978676363
H -3.8195163285718317 -0.7265526910469342 9.089876813530282
H -4.500208126874336 0.5259395919823442 9.637103466093734
O 1.452232596933974 8.300249478994742 3.489367488506979
H 1.7140991205558473 8.367738439623743 4.419871932827055
H 1.3035451236104096 9.219341469459092 3.22080857012791
O 5.2003077436990495 6.851075741519797 5.078831364949464
H 4.8519436828268105 6.654203165112721 5.961356733792448
H 6.070494385674158 7.240532508216227 5.252211234895331
O 7.188456885943987 -4.198758101663931 -0.8935347003841052
H 6.5427135664658564 -4.018481128716294 -0.19390398688290134
H 7.475645225395125 -3.318564868331143 -1.1794449554965591
O 3.0522786223211122 -6.031848613188271 -10.865469827650198
H 2.765410571924903 -5.882197082106263 -11.778858298021206
H 3.67356953984112 -6.772332384235549 -10.93361177451664
O -6.847863129940034 -0.7293351238307175 6.4289637596724365
H -6.796907875861324 -0.7070139186582898 7.396368888241345
H -7.019535807312712 -1.660953308527552 6.225056932700237
O -9.186917785363432 6.367564189665679 4.07725493054314
H -9.979583874488892 5.810439195506155 4.093366073683735
H -9.184322881248862 6.74516081004762 3.18485591494038
O -2.8102985452291325 0.1811157799554235 10.627284345270851
H -2.568587532187492 -0.7478984342543769 10.495088532664958
H -2.0002920366081165 0.6668251191503936 10.41063292452689
O 12.52940232296255 0.010696257474029913 -12.174154422270549
H 13.036111562019984 0.7818313322950026 -12.470066234023117
H 11.834996363820565 0.3880306534599356 -11.61345747933787
O 7.902357291332907 -5.79969770056208 -8.609397753966352
H 8.241051251044137 -6.62020878444943 -8.998004650164985
H 8.696918027556833 -5.347234570294095 -8.288598289348048
O 2.947582770331353 -2.3883530558395596 -8.110236423770495
H 3.74093786091792 -2.141714219798634 -8.60895913399809
H 3.1847761286284983 -3.2310934500746367 -7.694917410234844
O 2.6092799373711113 3.8930058220783783 11.444992317600542
H 2.533825980839591 2.985677700630326 11.11328501081746
H 3.440814462548659 3.8919415860826003 11.942497237314406
O 2.248861208991167 -7.969810029666672 4.113516618828245
H 2.298876929062092 -7.944539692991336 3.1461350008872686
H 2.992500282210532 -7.418966332980071 4.400804096630677
C -6.030960056364346 4.749576681575931 -3.8453473641599274
O -5.915886387917561 4.761635231968031 -5.036746079742851
O -6.146033724811132 4.737518131183831 -2.653948648577004