146

C -5.3564454929577465 1.0091607042253532 -0.0734429577464788
C -4.079135492957747 0.16955070422535368 -0.19788295774647868
C -4.333545492957747 -1.2789292957746463 0.3017270422535212
C -3.1403854929577464 -2.1745492957746464 0.7330270422535212
C -2.905235492957746 0.902300704225353 0.41966704225352136
C -2.7423854929577463 1.056130704225354 1.8024770422535212
C -1.8861754929577463 1.3499307042253532 -0.4326129577464788
C -1.5304554929577463 1.5279207042253526 2.3254170422535214
H -3.5237954929577464 0.7301007042253529 2.484817042253521
C -0.6776454929577462 1.8010507042253527 0.08546704225352131
H -1.9759254929577463 1.2426607042253535 -1.5115229577464788
C -0.4680254929577463 1.8513207042253539 1.4698070422535212
H -1.3950654929577464 1.5446707042253527 3.404047042253521
H 0.1461845070422536 1.9972507042253538 -0.6030529577464789
C -1.8679654929577463 -2.0866092957746467 -0.08765295774647863
C -0.6628654929577462 -1.814079295774647 0.5787970422535212
C -1.8438954929577462 -2.213429295774647 -1.4808029577464787
C 0.5129345070422537 -1.5763292957746469 -0.13022295774647863
H -0.6401854929577462 -1.7032692957746463 1.6609470422535213
C -0.6547954929577462 -1.9962392957746466 -2.1933129577464787
H -2.7578654929577464 -2.4351492957746466 -2.026182957746479
C 0.5308845070422537 -1.645769295774647 -1.5261029577464789
H 1.4044045070422537 -1.2610992957746463 0.41551704225352126
H -0.6795654929577464 -2.0467992957746466 -3.2793129577464786
C 1.7843245070422535 -1.2521692957746469 -2.2771629577464787
H 1.4981245070422535 -0.9384492957746469 -3.290282957746479
H 2.241984507042254 -0.38631929577464685 -1.8135029577464787
C 0.9385645070422537 2.0647807042253534 1.9815670422535212
H 1.0508945070422537 1.5807407042253532 2.9609770422535213
H 1.6053245070422537 1.5496207042253536 1.3096170422535214
C 3.9676945070422533 -1.6881692957746468 -3.314052957746479
H 4.795084507042254 -2.398849295774647 -3.4044129577464783
H 3.548404507042253 -1.4816192957746468 -4.303802957746479
H 4.307714507042253 -0.7637192957746466 -2.851282957746479
C 2.344694507042253 -3.565079295774647 -3.101282957746479
H 1.6334345070422536 -4.047909295774646 -2.4251929577464786
H 1.8561845070422536 -3.293109295774647 -4.041792957746479
H 3.1808045070422537 -4.243519295774647 -3.298122957746479
C 3.5156645070422536 -2.648489295774647 -1.1110629577464786
H 3.9311845070422535 -1.748249295774647 -0.6771029577464787
H 2.767184507042254 -3.1044092957746465 -0.45972295774647876
H 4.319224507042254 -3.371819295774647 -1.2863129577464787
C 2.963994507042253 3.381090704225353 2.401027042253521
H 3.3337945070422537 4.369820704225353 2.6912870422535216
H 3.120994507042253 2.671350704225353 3.2183370422535216
H 3.4665445070422534 3.0664207042253535 1.4881370422535212
C 1.2973745070422538 4.282440704225354 0.8488370422535213
H 1.7592145070422538 3.7367207042253527 0.02653704225352116
H 0.23311450704225378 4.4484607042253534 0.6605570422535213
H 1.7921845070422535 5.251370704225354 0.9736770422535213
C 0.7724845070422537 4.194670704225353 3.2772470422535216
H -0.2956954929577462 4.278220704225354 3.057857042253521
H 0.9298945070422537 3.612620704225354 4.190337042253521
H 1.2046345070422537 5.193640704225353 3.3918370422535213
N 2.876084507042253 -2.324759295774647 -2.4576629577464786
N 1.4527845070422536 3.504690704225353 2.1388470422535213
C -3.593905492957746 -3.637819295774647 0.8297870422535213
H -2.8952554929577463 -1.8680692957746468 1.7595270422535212
H -5.022615492957747 -1.2402792957746467 1.1579970422535213
H -4.898275492957747 -1.7933092957746464 -0.48931295774647876
H -3.883675492957746 0.07871070422535364 -1.2758929577464788
H -3.8751654929577466 -4.038529295774646 -0.1505529577464788
H -4.4603554929577465 -3.7321892957746465 1.4932570422535212
H -2.7953554929577464 -4.271929295774647 1.2313670422535212
H -5.648775492957746 1.147700704225353 0.9733970422535213
H -6.189795492957747 0.5254307042253537 -0.5943629577464788
H -5.2178854929577465 2.002970704225354 -0.5139729577464787
C 3.6710445070422537 1.0263707042253536 -0.27764295774647874
O 2.7356545070422538 1.6631507042253526 -0.7327029577464788
O 3.650814507042253 0.3883007042253537 0.7790570422535212
O 4.756604507042254 0.8696707042253538 -0.8334829577464786
O -0.30638856002773895 11.128973904000528 0.037748145211895956
H -0.2373009549190055 11.169975713220387 -0.9279190393610496
H -0.47012227083229163 10.191672381175273 0.22110318756314395
O 11.337996234329147 -1.4697643031454852 3.04536932038799
H 10.796981759233066 -0.7217417442472216 3.339873897628829
H 10.702523004627068 -2.0653516302554658 2.6206206247831694
O -6.939822714623038 -10.51259145185822 4.394601626311557
H -6.005570406521937 -10.760390936642073 4.325787405044261
H -6.954369304321902 -9.84793866235377 5.0995746828407285
O 7.40814614862033 -11.29473643612714 -3.579660829289732
H 7.764964005353025 -11.824814392573975 -4.308128902787697
H 6.69413215778365 -10.783899569630874 -3.9897725957848547
O -3.905222493397627 -1.6733479540631613 10.262052095535843
H -3.977566935653129 -2.1113632849698805 9.400729735170446
H -4.644250959087931 -1.046646985307424 10.268742907149921
O 3.4416962463672363 -1.4474586502798976 5.1004896565666575
H 4.087293547556648 -0.8554527323275773 4.686122096655918
H 3.785485756945205 -1.5779750984420549 5.997002999175509
O 1.6551380056974363 -0.3912590950750521 -9.107539845006286
H 0.8482984257691757 -0.3049526762738055 -8.577890478694108
H 2.3705864769812917 -0.31084693407432296 -8.458980430919352
O -6.051378445616737 9.037947778548638 -4.856970384456809
H -5.28288899887292 8.97958980282883 -4.269615573619892
H -6.753931778895768 8.582523708610072 -4.369149029123615
O 5.238898012343802 -8.946899466109846 -0.1207273181333468
H 5.015132514154038 -9.529441665020526 -0.8620376075589
H 6.206865280518139 -8.974341025064666 -0.08539641260799913
O -2.8429430665015456 -8.856227512053035 10.43979153973702
H -2.944872520614571 -9.675497149718204 9.932470138567897
H -2.9838368974495717 -8.156224403118868 9.784729313545272
O -6.245217415780308 -6.635832098848619 7.131281664927018
H -6.321600996056717 -7.480849883897464 7.599339191856457
H -5.923720180160105 -6.883831980584917 6.251453539411957
O 8.170208193557276 -0.22379308618452232 -5.083443502304335
H 8.181459814844379 -0.16173479247454003 -6.050392066655211
H 8.732395634035267 0.5109302754220982 -4.795192209196616
O -5.4196825058810925 3.774757654081635 11.873018383930205
H -5.866869792962429 4.293330698412936 11.1873997691991
H -4.849706779350428 4.418919448841413 12.31927525798113
O -8.711945190886828 10.566191975439832 6.643240666038951
H -9.646729394432473 10.768074644398283 6.799411206397075
H -8.603962367653088 9.670064402875036 6.995741769406862
O -6.159549883404118 -6.447310860425566 -4.444178814444609
H -6.012929332990449 -6.319631620599375 -5.393477388558043
H -5.276689800913941 -6.3526166610601384 -4.056167181046876
O 1.8768733953967534 -2.423645113744832 -10.059316099991785
H 1.949259613411534 -2.3020157310529314 -11.017926493012592
H 2.074353123953726 -1.5470656735678923 -9.696587294727927
O 5.862490700940682 6.441727609513671 -1.542727291523362
H 6.794254379121371 6.5399774356947695 -1.7899736799268702
H 5.634581008332647 5.547888405110209 -1.8394941916094347
O -3.525563158167593 3.3048064896702596 -14.816704863250465
H -4.335688317526484 3.243996998695094 -15.344877930417914
H -3.6645078071698314 4.08880993945175 -14.264441412038668
O 0.9000978468719874 -10.296647348451872 -3.520593204351338
H 0.6226365405638044 -10.143025589105793 -4.436225737334507
H 0.6183997510506112 -9.495934125321169 -3.05318924478932
O -2.450300666903537 12.282841728980284 9.58136879663262
H -2.933833305267334 13.121733867459723 9.543639172537752
H -2.2525161637752533 12.08476015969225 8.653679771942404
O -4.402435813807379 6.716739295810048 -10.326753746922236
H -4.682924358191201 6.49980917458198 -11.22854909835926
H -4.440437009007762 7.684513235881171 -10.296234009332384
O 9.763011466639224 10.378620427091299 5.8222019479097575
H 9.800990883073712 11.228960299635606 6.285286197251743
H 10.447700838071563 10.452556724166957 5.14051592566614
O -6.642644725727348 -2.820219324386282 4.908511275767397
H -7.247585701457375 -2.2195506577059154 4.447847704762228
H -6.544151860154513 -2.4244834538897386 5.787518795947738
O 10.306490441544412 6.589698096396888 -1.0871867201308565
H 9.430121893220077 6.749367040838028 -1.4685675699240193
H 10.513270400680453 7.414414381546523 -0.6223781124129257
C 5.227425297553886 2.0331618689304207 -3.9317645151305816
O 6.098687214631562 2.4347616514517165 -4.647612644155852
O 4.35616338047621 1.631562086409125 -3.2159163861053117