146

C -5.3564454929577465 1.0091607042253532 -0.0734429577464788
C -4.079135492957747 0.16955070422535368 -0.19788295774647868
C -4.333545492957747 -1.2789292957746463 0.3017270422535212
C -3.1403854929577464 -2.1745492957746464 0.7330270422535212
C -2.905235492957746 0.902300704225353 0.41966704225352136
C -2.7423854929577463 1.056130704225354 1.8024770422535212
C -1.8861754929577463 1.3499307042253532 -0.4326129577464788
C -1.5304554929577463 1.5279207042253526 2.3254170422535214
H -3.5237954929577464 0.7301007042253529 2.484817042253521
C -0.6776454929577462 1.8010507042253527 0.08546704225352131
H -1.9759254929577463 1.2426607042253535 -1.5115229577464788
C -0.4680254929577463 1.8513207042253539 1.4698070422535212
H -1.3950654929577464 1.5446707042253527 3.404047042253521
H 0.1461845070422536 1.9972507042253538 -0.6030529577464789
C -1.8679654929577463 -2.0866092957746467 -0.08765295774647863
C -0.6628654929577462 -1.814079295774647 0.5787970422535212
C -1.8438954929577462 -2.213429295774647 -1.4808029577464787
C 0.5129345070422537 -1.5763292957746469 -0.13022295774647863
H -0.6401854929577462 -1.7032692957746463 1.6609470422535213
C -0.6547954929577462 -1.9962392957746466 -2.1933129577464787
H -2.7578654929577464 -2.4351492957746466 -2.026182957746479
C 0.5308845070422537 -1.645769295774647 -1.5261029577464789
H 1.4044045070422537 -1.2610992957746463 0.41551704225352126
H -0.6795654929577464 -2.0467992957746466 -3.2793129577464786
C 1.7843245070422535 -1.2521692957746469 -2.2771629577464787
H 1.4981245070422535 -0.9384492957746469 -3.290282957746479
H 2.241984507042254 -0.38631929577464685 -1.8135029577464787
C 0.9385645070422537 2.0647807042253534 1.9815670422535212
H 1.0508945070422537 1.5807407042253532 2.9609770422535213
H 1.6053245070422537 1.5496207042253536 1.3096170422535214
C 3.9676945070422533 -1.6881692957746468 -3.314052957746479
H 4.795084507042254 -2.398849295774647 -3.4044129577464783
H 3.548404507042253 -1.4816192957746468 -4.303802957746479
H 4.307714507042253 -0.7637192957746466 -2.851282957746479
C 2.344694507042253 -3.565079295774647 -3.101282957746479
H 1.6334345070422536 -4.047909295774646 -2.4251929577464786
H 1.8561845070422536 -3.293109295774647 -4.041792957746479
H 3.1808045070422537 -4.243519295774647 -3.298122957746479
C 3.5156645070422536 -2.648489295774647 -1.1110629577464786
H 3.9311845070422535 -1.748249295774647 -0.6771029577464787
H 2.767184507042254 -3.1044092957746465 -0.45972295774647876
H 4.319224507042254 -3.371819295774647 -1.2863129577464787
C 2.963994507042253 3.381090704225353 2.401027042253521
H 3.3337945070422537 4.369820704225353 2.6912870422535216
H 3.120994507042253 2.671350704225353 3.2183370422535216
H 3.4665445070422534 3.0664207042253535 1.4881370422535212
C 1.2973745070422538 4.282440704225354 0.8488370422535213
H 1.7592145070422538 3.7367207042253527 0.02653704225352116
H 0.23311450704225378 4.4484607042253534 0.6605570422535213
H 1.7921845070422535 5.251370704225354 0.9736770422535213
C 0.7724845070422537 4.194670704225353 3.2772470422535216
H -0.2956954929577462 4.278220704225354 3.057857042253521
H 0.9298945070422537 3.612620704225354 4.190337042253521
H 1.2046345070422537 5.193640704225353 3.3918370422535213
N 2.876084507042253 -2.324759295774647 -2.4576629577464786
N 1.4527845070422536 3.504690704225353 2.1388470422535213
C -3.593905492957746 -3.637819295774647 0.8297870422535213
H -2.8952554929577463 -1.8680692957746468 1.7595270422535212
H -5.022615492957747 -1.2402792957746467 1.1579970422535213
H -4.898275492957747 -1.7933092957746464 -0.48931295774647876
H -3.883675492957746 0.07871070422535364 -1.2758929577464788
H -3.8751654929577466 -4.038529295774646 -0.1505529577464788
H -4.4603554929577465 -3.7321892957746465 1.4932570422535212
H -2.7953554929577464 -4.271929295774647 1.2313670422535212
H -5.648775492957746 1.147700704225353 0.9733970422535213
H -6.189795492957747 0.5254307042253537 -0.5943629577464788
H -5.2178854929577465 2.002970704225354 -0.5139729577464787
C 3.6710445070422537 1.0263707042253536 -0.27764295774647874
O 2.7356545070422538 1.6631507042253526 -0.7327029577464788
O 3.650814507042253 0.3883007042253537 0.7790570422535212
O 4.756604507042254 0.8696707042253538 -0.8334829577464786
O 9.993152635939706 1.5137697909377565 4.895471196564267
H 9.879533795652874 1.4480331382397504 3.9353999447688914
H 10.02872529809024 0.591506787520411 5.190644844668465
O -2.387846644726478 -8.517669730590853 -2.657827738512222
H -2.799663200606363 -9.366136789800287 -2.4353909370612756
H -3.1315730659054255 -7.897238639208216 -2.687797983524623
O 3.5490099617346456 0.7095222022698742 -9.272272248661803
H 3.9016269810334183 0.790828671639781 -10.171170381177078
H 2.6984239058728217 0.2616227231476318 -9.394138414907603
O 2.822337068330917 -6.809843287195675 -3.637227566355666
H 1.88450578622316 -7.053576730108134 -3.6314093186674397
H 3.172753489782914 -7.2082743571688965 -2.826411336648362
O -3.7090063048726933 -2.4942240059637144 4.959136101307498
H -3.1527776762164725 -2.5118002385684055 4.165871866887059
H -4.436905584640495 -1.9003799089478433 4.721493993816169
O 4.069693793228166 4.784851057954593 -4.92241544188313
H 4.993958109611279 4.7059157062507095 -5.202544056294871
H 3.58833990031284 4.214203611949646 -5.540170948894838
O -11.662253668850855 -7.987023305514103 5.6060567573716975
H -11.747753195550175 -7.760895539419813 4.667694662423591
H -10.98524212486133 -8.680167475781863 5.619036465717294
O -6.686490384221861 5.485112163646813 -4.068975227941061
H -5.8550338301968825 5.077963974518163 -4.355118038017026
H -7.292991729863431 5.3222389183624 -4.806938891006855
O 9.668820623152094 7.263510434702992 -3.0942424865224463
H 9.3011740404928 7.127593410785091 -3.9804309031519156
H 10.504005633045049 6.772393424681881 -3.1094748867937443
O -9.472775014955188 -5.06662073295108 3.434923496642955
H -9.58816106699276 -5.461862586333397 4.312099244842877
H -9.964516464817576 -5.657803266395004 2.845300309397015
O -9.058031595238225 -9.659420141853131 -9.23016936640049
H -9.177518348272136 -9.816954781862565 -10.17878578516337
H -9.367229394725992 -8.749897352908501 -9.103177392314315
O 5.741662945839511 -8.129833946659048 -9.272777164822664
H 5.8914996460178335 -8.49929436983027 -8.389592407317295
H 6.029556910149405 -8.833984316568197 -9.872986516774748
O -0.048772510994280455 -9.351836154568026 -10.403697754098202
H 0.6619871522481605 -9.95373032437306 -10.67111403326273
H 0.3635447047526131 -8.47540237270579 -10.432338353068698
O -9.46555741961517 -1.5691678855770916 2.8473020942839264
H -9.52385452726864 -0.6530041579688521 2.537120166450894
H -9.741021247135441 -1.5201561458949269 3.7750302190064704
O 13.864067559251573 0.6321276372503437 -3.3955623727830058
H 14.01632825855566 0.9724577085662007 -2.5011578340503497
H 12.90258349107361 0.6829199041723131 -3.504789093693611
O 4.873386620736035 -4.421496047037833 -4.7769641317532
H 4.853792863716334 -4.309378753748382 -5.739259904440216
H 4.722285073248488 -5.370011242320604 -4.648709732356712
O 1.0849460859156301 -8.271756133794494 -1.6844329727073069
H 1.6062022480130047 -7.829440975288267 -0.9976894463955341
H 0.2759994631003395 -7.741448831319362 -1.7422384281357173
O -6.328559360519151 5.572675595044815 3.0812559404039424
H -5.496407575337834 5.93371293294007 2.74045863412783
H -6.188920057748087 4.613834573231637 3.071944425496573
O -1.9706388981521756 7.115253514293017 2.152405883890746
H -1.6051963839676042 7.167643481015876 3.048326872099661
H -1.3551243882787056 6.532976405583627 1.682238678411404
O 5.450776908779752 9.448688297744312 2.922953405913999
H 5.454984330429909 9.501133812353816 3.890527239014297
H 5.898740671907637 10.26089503659902 2.6425775428599496
O -3.6974622015101204 3.3625219078527713 -10.045563663928984
H -3.7438301001540646 4.2348428366115805 -10.464936495815735
H -3.16754533439608 3.5138630182004134 -9.248540498288998
O 4.100205420159947 -3.7334110690175915 6.474391521924033
H 4.879103248095253 -3.7304710411773434 7.050826155489679
H 3.3993761224072614 -4.106638113194789 7.029820917262656
O 4.109816421936878 -13.746130615102668 1.3889920827515705
H 3.928676378300029 -14.567498450684678 1.8701474840125036
H 3.784707115466348 -13.051422104168038 1.9811457519804616
O -6.315039031035143 6.256009331988743 10.505098104730104
H -6.841649790001425 7.069203709690886 10.48603585107058
H -6.387152698845988 5.909263003844979 9.60313993101378
C -7.466107474984746 -11.03314121738209 -0.3265094130498971
O -6.5478091577413045 -11.435314360387396 0.32755726619090897
O -8.38440579222819 -10.630968074376781 -0.9805760922907027