146

C -5.3564454929577465 1.0091607042253532 -0.0734429577464788
C -4.079135492957747 0.16955070422535368 -0.19788295774647868
C -4.333545492957747 -1.2789292957746463 0.3017270422535212
C -3.1403854929577464 -2.1745492957746464 0.7330270422535212
C -2.905235492957746 0.902300704225353 0.41966704225352136
C -2.7423854929577463 1.056130704225354 1.8024770422535212
C -1.8861754929577463 1.3499307042253532 -0.4326129577464788
C -1.5304554929577463 1.5279207042253526 2.3254170422535214
H -3.5237954929577464 0.7301007042253529 2.484817042253521
C -0.6776454929577462 1.8010507042253527 0.08546704225352131
H -1.9759254929577463 1.2426607042253535 -1.5115229577464788
C -0.4680254929577463 1.8513207042253539 1.4698070422535212
H -1.3950654929577464 1.5446707042253527 3.404047042253521
H 0.1461845070422536 1.9972507042253538 -0.6030529577464789
C -1.8679654929577463 -2.0866092957746467 -0.08765295774647863
C -0.6628654929577462 -1.814079295774647 0.5787970422535212
C -1.8438954929577462 -2.213429295774647 -1.4808029577464787
C 0.5129345070422537 -1.5763292957746469 -0.13022295774647863
H -0.6401854929577462 -1.7032692957746463 1.6609470422535213
C -0.6547954929577462 -1.9962392957746466 -2.1933129577464787
H -2.7578654929577464 -2.4351492957746466 -2.026182957746479
C 0.5308845070422537 -1.645769295774647 -1.5261029577464789
H 1.4044045070422537 -1.2610992957746463 0.41551704225352126
H -0.6795654929577464 -2.0467992957746466 -3.2793129577464786
C 1.7843245070422535 -1.2521692957746469 -2.2771629577464787
H 1.4981245070422535 -0.9384492957746469 -3.290282957746479
H 2.241984507042254 -0.38631929577464685 -1.8135029577464787
C 0.9385645070422537 2.0647807042253534 1.9815670422535212
H 1.0508945070422537 1.5807407042253532 2.9609770422535213
H 1.6053245070422537 1.5496207042253536 1.3096170422535214
C 3.9676945070422533 -1.6881692957746468 -3.314052957746479
H 4.795084507042254 -2.398849295774647 -3.4044129577464783
H 3.548404507042253 -1.4816192957746468 -4.303802957746479
H 4.307714507042253 -0.7637192957746466 -2.851282957746479
C 2.344694507042253 -3.565079295774647 -3.101282957746479
H 1.6334345070422536 -4.047909295774646 -2.4251929577464786
H 1.8561845070422536 -3.293109295774647 -4.041792957746479
H 3.1808045070422537 -4.243519295774647 -3.298122957746479
C 3.5156645070422536 -2.648489295774647 -1.1110629577464786
H 3.9311845070422535 -1.748249295774647 -0.6771029577464787
H 2.767184507042254 -3.1044092957746465 -0.45972295774647876
H 4.319224507042254 -3.371819295774647 -1.2863129577464787
C 2.963994507042253 3.381090704225353 2.401027042253521
H 3.3337945070422537 4.369820704225353 2.6912870422535216
H 3.120994507042253 2.671350704225353 3.2183370422535216
H 3.4665445070422534 3.0664207042253535 1.4881370422535212
C 1.2973745070422538 4.282440704225354 0.8488370422535213
H 1.7592145070422538 3.7367207042253527 0.02653704225352116
H 0.23311450704225378 4.4484607042253534 0.6605570422535213
H 1.7921845070422535 5.251370704225354 0.9736770422535213
C 0.7724845070422537 4.194670704225353 3.2772470422535216
H -0.2956954929577462 4.278220704225354 3.057857042253521
H 0.9298945070422537 3.612620704225354 4.190337042253521
H 1.2046345070422537 5.193640704225353 3.3918370422535213
N 2.876084507042253 -2.324759295774647 -2.4576629577464786
N 1.4527845070422536 3.504690704225353 2.1388470422535213
C -3.593905492957746 -3.637819295774647 0.8297870422535213
H -2.8952554929577463 -1.8680692957746468 1.7595270422535212
H -5.022615492957747 -1.2402792957746467 1.1579970422535213
H -4.898275492957747 -1.7933092957746464 -0.48931295774647876
H -3.883675492957746 0.07871070422535364 -1.2758929577464788
H -3.8751654929577466 -4.038529295774646 -0.1505529577464788
H -4.4603554929577465 -3.7321892957746465 1.4932570422535212
H -2.7953554929577464 -4.271929295774647 1.2313670422535212
H -5.648775492957746 1.147700704225353 0.9733970422535213
H -6.189795492957747 0.5254307042253537 -0.5943629577464788
H -5.2178854929577465 2.002970704225354 -0.5139729577464787
C 3.6710445070422537 1.0263707042253536 -0.27764295774647874
O 2.7356545070422538 1.6631507042253526 -0.7327029577464788
O 3.650814507042253 0.3883007042253537 0.7790570422535212
O 4.756604507042254 0.8696707042253538 -0.8334829577464786
O 3.2935770363918504 10.572704251848073 0.8875703531093802
H 3.506430755689582 11.155075445261422 1.632220904820338
H 2.3650869722737973 10.336658280110951 1.0330022765675069
O -7.149023168426749 2.702187635451578 -3.505583717289032
H -6.812421242827113 2.0459866531807496 -4.134127090056113
H -6.809559238936029 3.5448511360281474 -3.8426955825070364
O -5.193554572949576 -7.324076166131046 6.181724437238849
H -4.488865706092442 -7.88792784972464 6.534502323076777
H -5.031432517579855 -6.461841286754828 6.5930994440754045
O 7.663751819342568 -5.759302179463912 4.3679955213947546
H 6.716287347141479 -5.742121257123342 4.570438715215243
H 8.01712961804046 -6.440751560447898 4.959360735829942
O -10.816239967853623 -1.4948716377658764 0.003317718847331924
H -10.922235306758305 -1.657037584845514 0.9527567904249912
H -9.864368745101482 -1.596825927390391 -0.1467104199250387
O 2.5436491955997442 2.022303704762302 -6.9777889224697605
H 3.464214926944367 2.324592117517426 -6.9899464998570515
H 2.053684830411464 2.7473806275625936 -7.393914289598592
O -10.0784018358858 2.5416421617316973 -7.997530538590306
H -10.157103157581275 2.2217924843225343 -8.908831609984738
H -9.57457727268542 1.84650849006651 -7.54818442217978
O -8.03845471257561 3.946544509918457 -7.709723470270948
H -7.299928523953859 3.3198057070201186 -7.7370163001240115
H -7.921057366730423 4.410056900395517 -6.866909094881715
O 7.9063253261503155 -12.286751982076723 -10.52921231688087
H 7.967728761814874 -12.22994289934486 -11.494598096301589
H 7.205395229276179 -11.657501070226848 -10.301831065384361
O 3.4893134963179038 0.07941457692387299 11.73441586314906
H 3.074401389192798 0.16534093874292366 12.605869798022011
H 3.7424275961658116 -0.854729800048851 11.68677680639491
O 10.532598979944915 -1.2234975332935973 -2.9040599380789316
H 10.296376569933733 -0.3275683721747398 -2.620374781319947
H 9.691766711076838 -1.7047036220173044 -2.8839666529967887
O 6.906755929620314 -12.127588959185909 0.8728805517618019
H 7.0460058562289944 -11.555082054251354 1.642174161927474
H 7.20513251798887 -12.999352570786218 1.172816480425114
O 3.9950610737701004 5.693874256654378 6.332745477338245
H 4.845988137618589 5.303748307764433 6.0823613066865985
H 3.3790601564851857 4.946218891392082 6.310023923724009
O 0.9147971689940048 -13.406758721505225 1.4881581157063968
H 1.5793533446505712 -12.794816890189322 1.1376447188405185
H 0.12466174070309044 -13.222855121375153 0.9582265964336399
O 4.377240172467176 -2.74529461670347 -8.391816578344521
H 4.36503325909391 -2.122767002258541 -9.134297364236927
H 4.501241256477431 -2.180129516149598 -7.61453021889891
O 6.482333681799677 4.160100834157488 5.85787486687201
H 6.471559719422221 4.113419419601644 6.825693095760966
H 5.891146681754107 3.4434668975280185 5.582383167998761
O -8.449796672813257 2.7375520154915076 2.1406729230960337
H -8.235985893043898 3.679291442034544 2.060803280247124
H -7.696735586503244 2.3668060688477452 2.624830322742888
O -6.030813524556473 5.329943802965153 1.3952209773306905
H -5.516301908669816 4.837222141040594 2.052085132151154
H -5.729961052509485 6.245000031809688 1.500681076022242
O 10.406800837842034 0.7815927994687262 3.6445488548345315
H 9.983847153470974 0.6908626347521518 2.7774585625422863
H 10.994727055102548 0.013308905003523996 3.6997264305616953
O 0.3635884369625133 3.5539524966310756 -16.667917677837234
H 1.1272527922993907 3.837505599778762 -17.19268595715986
H 0.5912520631867779 3.8155088996833895 -15.763086497109715
O -10.720593669315187 -1.5060765394558007 -9.257221338743648
H -11.315657103076882 -1.0518314210464685 -9.87246782520337
H -10.907628459317078 -1.091493739391835 -8.401592310764777
O 6.345722043963573 -11.019627598682419 3.642568020291333
H 7.151100664501809 -11.538194853395884 3.496210113709995
H 6.624761194185093 -10.104873615969499 3.4866056913317234
O 0.23372832121339027 10.333903397704063 5.240372814949401
H 0.11643565775154485 9.984957377188875 6.136724566643256
H -0.6212153432924854 10.740533687700626 5.033769131345806
O -8.367000732700056 -4.703148401856549 14.177955154421477
H -8.259044462159483 -5.557379304550608 14.622480030478444
H -7.530981085464516 -4.243601081148139 14.34780612959055
C -8.419312828309547 6.437459651188254 3.3809952387165882
O -9.547544032260618 6.046448988772726 3.464800188501698
O -7.291081624358474 6.828470313603782 3.2971902889314784