146

C -5.3564454929577465 1.0091607042253532 -0.0734429577464788
C -4.079135492957747 0.16955070422535368 -0.19788295774647868
C -4.333545492957747 -1.2789292957746463 0.3017270422535212
C -3.1403854929577464 -2.1745492957746464 0.7330270422535212
C -2.905235492957746 0.902300704225353 0.41966704225352136
C -2.7423854929577463 1.056130704225354 1.8024770422535212
C -1.8861754929577463 1.3499307042253532 -0.4326129577464788
C -1.5304554929577463 1.5279207042253526 2.3254170422535214
H -3.5237954929577464 0.7301007042253529 2.484817042253521
C -0.6776454929577462 1.8010507042253527 0.08546704225352131
H -1.9759254929577463 1.2426607042253535 -1.5115229577464788
C -0.4680254929577463 1.8513207042253539 1.4698070422535212
H -1.3950654929577464 1.5446707042253527 3.404047042253521
H 0.1461845070422536 1.9972507042253538 -0.6030529577464789
C -1.8679654929577463 -2.0866092957746467 -0.08765295774647863
C -0.6628654929577462 -1.814079295774647 0.5787970422535212
C -1.8438954929577462 -2.213429295774647 -1.4808029577464787
C 0.5129345070422537 -1.5763292957746469 -0.13022295774647863
H -0.6401854929577462 -1.7032692957746463 1.6609470422535213
C -0.6547954929577462 -1.9962392957746466 -2.1933129577464787
H -2.7578654929577464 -2.4351492957746466 -2.026182957746479
C 0.5308845070422537 -1.645769295774647 -1.5261029577464789
H 1.4044045070422537 -1.2610992957746463 0.41551704225352126
H -0.6795654929577464 -2.0467992957746466 -3.2793129577464786
C 1.7843245070422535 -1.2521692957746469 -2.2771629577464787
H 1.4981245070422535 -0.9384492957746469 -3.290282957746479
H 2.241984507042254 -0.38631929577464685 -1.8135029577464787
C 0.9385645070422537 2.0647807042253534 1.9815670422535212
H 1.0508945070422537 1.5807407042253532 2.9609770422535213
H 1.6053245070422537 1.5496207042253536 1.3096170422535214
C 3.9676945070422533 -1.6881692957746468 -3.314052957746479
H 4.795084507042254 -2.398849295774647 -3.4044129577464783
H 3.548404507042253 -1.4816192957746468 -4.303802957746479
H 4.307714507042253 -0.7637192957746466 -2.851282957746479
C 2.344694507042253 -3.565079295774647 -3.101282957746479
H 1.6334345070422536 -4.047909295774646 -2.4251929577464786
H 1.8561845070422536 -3.293109295774647 -4.041792957746479
H 3.1808045070422537 -4.243519295774647 -3.298122957746479
C 3.5156645070422536 -2.648489295774647 -1.1110629577464786
H 3.9311845070422535 -1.748249295774647 -0.6771029577464787
H 2.767184507042254 -3.1044092957746465 -0.45972295774647876
H 4.319224507042254 -3.371819295774647 -1.2863129577464787
C 2.963994507042253 3.381090704225353 2.401027042253521
H 3.3337945070422537 4.369820704225353 2.6912870422535216
H 3.120994507042253 2.671350704225353 3.2183370422535216
H 3.4665445070422534 3.0664207042253535 1.4881370422535212
C 1.2973745070422538 4.282440704225354 0.8488370422535213
H 1.7592145070422538 3.7367207042253527 0.02653704225352116
H 0.23311450704225378 4.4484607042253534 0.6605570422535213
H 1.7921845070422535 5.251370704225354 0.9736770422535213
C 0.7724845070422537 4.194670704225353 3.2772470422535216
H -0.2956954929577462 4.278220704225354 3.057857042253521
H 0.9298945070422537 3.612620704225354 4.190337042253521
H 1.2046345070422537 5.193640704225353 3.3918370422535213
N 2.876084507042253 -2.324759295774647 -2.4576629577464786
N 1.4527845070422536 3.504690704225353 2.1388470422535213
C -3.593905492957746 -3.637819295774647 0.8297870422535213
H -2.8952554929577463 -1.8680692957746468 1.7595270422535212
H -5.022615492957747 -1.2402792957746467 1.1579970422535213
H -4.898275492957747 -1.7933092957746464 -0.48931295774647876
H -3.883675492957746 0.07871070422535364 -1.2758929577464788
H -3.8751654929577466 -4.038529295774646 -0.1505529577464788
H -4.4603554929577465 -3.7321892957746465 1.4932570422535212
H -2.7953554929577464 -4.271929295774647 1.2313670422535212
H -5.648775492957746 1.147700704225353 0.9733970422535213
H -6.189795492957747 0.5254307042253537 -0.5943629577464788
H -5.2178854929577465 2.002970704225354 -0.5139729577464787
C 3.6710445070422537 1.0263707042253536 -0.27764295774647874
O 2.7356545070422538 1.6631507042253526 -0.7327029577464788
O 3.650814507042253 0.3883007042253537 0.7790570422535212
O 4.756604507042254 0.8696707042253538 -0.8334829577464786
O -10.63145582908345 -10.585319119641907 6.324851212809475
H -10.68514475909527 -10.826272421911929 7.261881821604811
H -9.752009306008928 -10.18844705767713 6.235250298841122
O 4.247191091161395 -6.829438601553725 7.517699936820878
H 4.098465060817235 -6.92123020804017 6.564588072569516
H 4.457345297425464 -5.890485996642369 7.632439466276499
O -9.70325236126212 -5.494928111274713 -0.5859709600244938
H -9.462288444583624 -4.832301673873972 -1.2506738652510043
H -9.992421977134342 -6.257286721172806 -1.1095664407828352
O -7.893829473119873 -5.171457818772599 -3.8964665540123415
H -7.432905754835857 -5.0230671551877935 -3.057123421685581
H -8.795555831907999 -4.860037987861047 -3.7265571455567557
O -9.215171556899408 -4.677192555237164 -10.23963082459979
H -9.101619786109392 -3.7445743375739813 -10.002361753009751
H -9.904037501995072 -4.990480541600958 -9.634423181234657
O 5.2928618849586595 10.41466690837963 -4.888612231979765
H 5.962005438931476 10.437296953750751 -5.589113582530304
H 5.078051577257563 11.347780000130063 -4.739889557147354
O 3.1672536501387567 -9.085856047603027 -0.5664385779989811
H 3.199633217313804 -9.96558505914006 -0.16147464529678124
H 2.966376326889809 -9.264030454129198 -1.4974939609721873
O -5.689525445643359 -1.220865136491531 5.510732570673049
H -5.8657197567571195 -1.289007522248889 4.560322376654464
H -5.218854142668707 -0.3787553113207244 5.601735379459024
O -2.228088818340965 -9.7945557776002 -5.752132772771558
H -2.1275597790114538 -10.51577417006599 -6.391433405901657
H -2.3183378074545464 -9.003317157736873 -6.3041821461982055
O -6.273280456687681 4.433853821208576 6.199347666582106
H -5.402077941380258 4.105338816354394 6.467771633112067
H -6.173325784269254 4.6159725858367135 5.252878563371628
O 6.810373614981344 -0.7613221566579796 -6.605988057507108
H 6.678314985174155 -1.7158016137163217 -6.708442150871218
H 6.483424157423426 -0.5743001804816807 -5.713189772937915
O 0.6659533278852974 10.996166902038958 5.698101604492994
H 1.3815392949111835 10.493528549417634 5.28065847403119
H 0.940817664165138 11.920173837507969 5.600006119649865
O 2.6325283468486766 -2.2845985060427783 -6.336245074808666
H 2.670626987151161 -1.562135709492646 -6.980887113546495
H 2.2110438452353582 -1.8844530859382884 -5.560876516012803
O 3.2978853024219443 -7.997387989673432 -3.6702506856197563
H 3.2618760367247175 -8.039359737287924 -4.637674616523955
H 2.4060343427536814 -8.254003028089851 -3.3914810099063857
O 1.5665829002397789 12.161113045997315 0.7368452303265292
H 1.9938275762500215 11.543273149700065 0.12471517366838292
H 1.1468720660663325 11.586394977438331 1.3944955185871395
O 1.3771614533545837 -0.5811559748791822 -9.476037438385237
H 1.1721703015759863 0.3589533573880678 -9.590669144193491
H 2.1583614382493606 -0.7198956181152703 -10.032310608055608
O 1.4695794638952302 4.2811300249883715 11.08931400772384
H 2.0462211345453767 4.878146795231477 10.589291291621564
H 0.575326817896106 4.591864337113463 10.882629860553063
O -2.6466499732080533 5.250367341911067 10.264342037340159
H -3.2881446708649866 5.9458789464926305 10.473424599191736
H -2.045283120678699 5.669459865900191 9.630558707395794
O 4.858365368956208 3.9028002755668676 -0.31709657375275563
H 4.837672127991012 4.425097750950244 0.4988350985620945
H 3.936333888855522 3.8975324175391357 -0.6150766799262011
O 4.3104281800320505 -11.847171812906398 -9.619635552148672
H 4.657287284115662 -11.929662952324685 -10.520663482199561
H 4.65576219026963 -10.995313583409402 -9.312969736460863
O -3.11029071853687 6.148788421685718 2.02576062916547
H -2.7326476511191737 5.772249466109226 1.216704706830853
H -2.750979737241755 5.592145039522145 2.7328714465867843
O 5.461036262755065 -8.275088355404446 0.41645184598016005
H 5.445915673969492 -8.4222906978226 -0.541185974430765
H 4.544666410282152 -8.428833417984881 0.6913894634698544
O 9.459818198641385 1.8924873152436237 -12.95244846673683
H 9.792652016985222 2.6496569607400486 -13.457307986014698
H 10.005092505310536 1.1510749780793184 -13.255673830265401
O -4.752113033644507 7.25714931354112 -7.575179830682063
H -4.814489283899859 7.444327396924709 -8.523884698069665
H -5.672724993381999 7.130594427362676 -7.30055385836216
C -5.607792323403127 -2.9873440406650538 -5.683105526668445
O -5.515009058894263 -1.9392466872556133 -5.112402923815431
O -5.700575587911993 -4.0354413940744935 -6.25380812952146