146

C -5.3564454929577465 1.0091607042253532 -0.0734429577464788
C -4.079135492957747 0.16955070422535368 -0.19788295774647868
C -4.333545492957747 -1.2789292957746463 0.3017270422535212
C -3.1403854929577464 -2.1745492957746464 0.7330270422535212
C -2.905235492957746 0.902300704225353 0.41966704225352136
C -2.7423854929577463 1.056130704225354 1.8024770422535212
C -1.8861754929577463 1.3499307042253532 -0.4326129577464788
C -1.5304554929577463 1.5279207042253526 2.3254170422535214
H -3.5237954929577464 0.7301007042253529 2.484817042253521
C -0.6776454929577462 1.8010507042253527 0.08546704225352131
H -1.9759254929577463 1.2426607042253535 -1.5115229577464788
C -0.4680254929577463 1.8513207042253539 1.4698070422535212
H -1.3950654929577464 1.5446707042253527 3.404047042253521
H 0.1461845070422536 1.9972507042253538 -0.6030529577464789
C -1.8679654929577463 -2.0866092957746467 -0.08765295774647863
C -0.6628654929577462 -1.814079295774647 0.5787970422535212
C -1.8438954929577462 -2.213429295774647 -1.4808029577464787
C 0.5129345070422537 -1.5763292957746469 -0.13022295774647863
H -0.6401854929577462 -1.7032692957746463 1.6609470422535213
C -0.6547954929577462 -1.9962392957746466 -2.1933129577464787
H -2.7578654929577464 -2.4351492957746466 -2.026182957746479
C 0.5308845070422537 -1.645769295774647 -1.5261029577464789
H 1.4044045070422537 -1.2610992957746463 0.41551704225352126
H -0.6795654929577464 -2.0467992957746466 -3.2793129577464786
C 1.7843245070422535 -1.2521692957746469 -2.2771629577464787
H 1.4981245070422535 -0.9384492957746469 -3.290282957746479
H 2.241984507042254 -0.38631929577464685 -1.8135029577464787
C 0.9385645070422537 2.0647807042253534 1.9815670422535212
H 1.0508945070422537 1.5807407042253532 2.9609770422535213
H 1.6053245070422537 1.5496207042253536 1.3096170422535214
C 3.9676945070422533 -1.6881692957746468 -3.314052957746479
H 4.795084507042254 -2.398849295774647 -3.4044129577464783
H 3.548404507042253 -1.4816192957746468 -4.303802957746479
H 4.307714507042253 -0.7637192957746466 -2.851282957746479
C 2.344694507042253 -3.565079295774647 -3.101282957746479
H 1.6334345070422536 -4.047909295774646 -2.4251929577464786
H 1.8561845070422536 -3.293109295774647 -4.041792957746479
H 3.1808045070422537 -4.243519295774647 -3.298122957746479
C 3.5156645070422536 -2.648489295774647 -1.1110629577464786
H 3.9311845070422535 -1.748249295774647 -0.6771029577464787
H 2.767184507042254 -3.1044092957746465 -0.45972295774647876
H 4.319224507042254 -3.371819295774647 -1.2863129577464787
C 2.963994507042253 3.381090704225353 2.401027042253521
H 3.3337945070422537 4.369820704225353 2.6912870422535216
H 3.120994507042253 2.671350704225353 3.2183370422535216
H 3.4665445070422534 3.0664207042253535 1.4881370422535212
C 1.2973745070422538 4.282440704225354 0.8488370422535213
H 1.7592145070422538 3.7367207042253527 0.02653704225352116
H 0.23311450704225378 4.4484607042253534 0.6605570422535213
H 1.7921845070422535 5.251370704225354 0.9736770422535213
C 0.7724845070422537 4.194670704225353 3.2772470422535216
H -0.2956954929577462 4.278220704225354 3.057857042253521
H 0.9298945070422537 3.612620704225354 4.190337042253521
H 1.2046345070422537 5.193640704225353 3.3918370422535213
N 2.876084507042253 -2.324759295774647 -2.4576629577464786
N 1.4527845070422536 3.504690704225353 2.1388470422535213
C -3.593905492957746 -3.637819295774647 0.8297870422535213
H -2.8952554929577463 -1.8680692957746468 1.7595270422535212
H -5.022615492957747 -1.2402792957746467 1.1579970422535213
H -4.898275492957747 -1.7933092957746464 -0.48931295774647876
H -3.883675492957746 0.07871070422535364 -1.2758929577464788
H -3.8751654929577466 -4.038529295774646 -0.1505529577464788
H -4.4603554929577465 -3.7321892957746465 1.4932570422535212
H -2.7953554929577464 -4.271929295774647 1.2313670422535212
H -5.648775492957746 1.147700704225353 0.9733970422535213
H -6.189795492957747 0.5254307042253537 -0.5943629577464788
H -5.2178854929577465 2.002970704225354 -0.5139729577464787
C 3.6710445070422537 1.0263707042253536 -0.27764295774647874
O 2.7356545070422538 1.6631507042253526 -0.7327029577464788
O 3.650814507042253 0.3883007042253537 0.7790570422535212
O 4.756604507042254 0.8696707042253538 -0.8334829577464786
O 0.8012040039506467 7.719669942510703 1.035407776450364
H 0.628486556812156 8.090152877928046 1.913973900836294
H -0.008690141613834135 7.23151724455914 0.823888602938863
O 3.0766567552775275 -6.465317505145609 6.51055600870228
H 2.655866753449505 -6.7927981689954136 7.3196663510327085
H 3.806703620325574 -7.084301849256716 6.359387556706297
O 9.265851066723101 -7.239319527130382 -3.8525565683844976
H 9.34537105062022 -6.5787638429691135 -3.1480637599164174
H 9.665187159156616 -6.808715881858959 -4.6233179648353655
O -7.241118996016525 -4.629437084678331 -9.804344239151199
H -6.902630181031335 -3.949717147069011 -10.406318894303977
H -6.869370330943691 -4.38569517287634 -8.943324637314126
O 4.126885530571896 2.240522697914069 9.041374881081738
H 4.773338543574944 2.7147915682359067 9.585557660598816
H 3.3922246495288837 2.866044480528922 8.952168190528615
O -1.2309847026571266 8.81110135962745 9.579298933158912
H -1.3248357394572379 9.163919796472879 8.68170298262577
H -0.5833297392162784 8.096734191912272 9.483462915289698
O -2.4238922313057936 -4.398712974296932 11.631942309966808
H -2.5558958584692735 -4.804549508718576 10.761977306852133
H -3.0258154663913306 -3.6393412053068683 11.629733277359273
O 7.460407374036904 -6.590392355600946 -4.366514999811278
H 6.932061130675549 -7.327899659329168 -4.706956743687483
H 6.84543939038416 -5.841544174577599 -4.368165805706819
O -5.944305036942375 -5.597206704152921 4.097353498510632
H -5.711822574989036 -5.737018743811546 5.027607149592211
H -6.483693732546236 -6.370073114206516 3.8721884666659165
O -5.333201687310922 -9.603782897190943 13.260651043354956
H -4.94905342330471 -9.671140478176236 14.14770257762161
H -5.667463047367657 -8.69522761570181 13.218715522000966
O 0.41573697457130576 0.934308692509517 -7.820058985542335
H 0.7959508023246538 1.800701675059325 -7.610850950625899
H 0.4408455953795518 0.8952271161390827 -8.787945410619942
O 5.21546366164471 -4.06141726803937 -9.219303732167791
H 4.909655763412468 -4.94628394718416 -9.469223412101263
H 4.736700458428164 -3.8714611810710773 -8.398533103691403
O 2.616050778218052 -11.479319566917162 6.169605956838256
H 2.59966654804807 -11.387039813678262 7.134066096524654
H 3.554023889530992 -11.393149371975372 5.942134894376199
O 0.5401132926044648 -8.08582977120618 0.8979767568157755
H 0.5024876748303413 -7.9172493112310125 -0.05550753686801531
H -0.19923741716106802 -7.571813163813176 1.255900491141105
O -10.395857878222575 -4.8916119649018155 -1.9334581789063
H -10.761848092111311 -5.599180396383072 -2.4851514224835918
H -9.457812616188644 -5.120288943813162 -1.8513614676952361
O 11.21924447429906 7.825553719599797 1.9858955664721176
H 11.728531178017379 7.8382502557748275 2.8101729519952707
H 11.304710172276208 6.91279726426067 1.671995563276784
O 6.937076752960554 3.8760913351984563 3.935450697525443
H 7.013331366933481 4.642155246316928 4.523922170776025
H 7.200106218508694 4.219825774199096 3.0684881377811504
O -8.781995141177307 0.28274149661616765 -3.287095141458048
H -9.53612073584998 0.8333168463742008 -3.5461872652256514
H -8.77710269192248 0.3328842656732307 -2.319405257790983
O -5.33703960296458 -11.398785898700158 -9.968020634421798
H -5.216906795031999 -11.556932813864604 -10.916453562246534
H -6.136903421059506 -10.853831417791577 -9.921069270860457
O -1.4875498472862898 8.056513531093124 -5.646753824743039
H -1.5579816666219792 8.152224836918329 -4.685064653720354
H -2.0766399443080306 8.743035565281199 -5.994061035242883
O 1.689810645525562 -9.008200798030515 2.975252066216769
H 1.9783538619233108 -8.797469068621096 3.8759752797462967
H 2.237685918475349 -9.76744727076527 2.7255734263013167
O 2.577360719431765 -9.60128591973356 10.510351514962775
H 2.5178104707456526 -9.619297989591008 11.477355491232197
H 2.6606635315439835 -8.659407699812967 10.298483620666792
O 3.733502653364788 3.753920940959496 -3.3949977050184517
H 4.070766481164373 2.84699297289112 -3.4469797027998017
H 4.2695215130666195 4.163459141664675 -2.699351107594794
O -2.764686137751019 -8.73747234045658 6.301946053282522
H -2.719200440906712 -8.67328925914545 7.267750868116245
H -2.0032647614370163 -8.221539421308616 5.996966291771119
C -0.060024353251584506 4.745078650452771 5.943450830287213
O -0.2498684431496201 4.447911818169638 4.799567377910357
O 0.1298197366464513 5.042245482735904 7.087334282664069