146

C -5.3564454929577465 1.0091607042253532 -0.0734429577464788
C -4.079135492957747 0.16955070422535368 -0.19788295774647868
C -4.333545492957747 -1.2789292957746463 0.3017270422535212
C -3.1403854929577464 -2.1745492957746464 0.7330270422535212
C -2.905235492957746 0.902300704225353 0.41966704225352136
C -2.7423854929577463 1.056130704225354 1.8024770422535212
C -1.8861754929577463 1.3499307042253532 -0.4326129577464788
C -1.5304554929577463 1.5279207042253526 2.3254170422535214
H -3.5237954929577464 0.7301007042253529 2.484817042253521
C -0.6776454929577462 1.8010507042253527 0.08546704225352131
H -1.9759254929577463 1.2426607042253535 -1.5115229577464788
C -0.4680254929577463 1.8513207042253539 1.4698070422535212
H -1.3950654929577464 1.5446707042253527 3.404047042253521
H 0.1461845070422536 1.9972507042253538 -0.6030529577464789
C -1.8679654929577463 -2.0866092957746467 -0.08765295774647863
C -0.6628654929577462 -1.814079295774647 0.5787970422535212
C -1.8438954929577462 -2.213429295774647 -1.4808029577464787
C 0.5129345070422537 -1.5763292957746469 -0.13022295774647863
H -0.6401854929577462 -1.7032692957746463 1.6609470422535213
C -0.6547954929577462 -1.9962392957746466 -2.1933129577464787
H -2.7578654929577464 -2.4351492957746466 -2.026182957746479
C 0.5308845070422537 -1.645769295774647 -1.5261029577464789
H 1.4044045070422537 -1.2610992957746463 0.41551704225352126
H -0.6795654929577464 -2.0467992957746466 -3.2793129577464786
C 1.7843245070422535 -1.2521692957746469 -2.2771629577464787
H 1.4981245070422535 -0.9384492957746469 -3.290282957746479
H 2.241984507042254 -0.38631929577464685 -1.8135029577464787
C 0.9385645070422537 2.0647807042253534 1.9815670422535212
H 1.0508945070422537 1.5807407042253532 2.9609770422535213
H 1.6053245070422537 1.5496207042253536 1.3096170422535214
C 3.9676945070422533 -1.6881692957746468 -3.314052957746479
H 4.795084507042254 -2.398849295774647 -3.4044129577464783
H 3.548404507042253 -1.4816192957746468 -4.303802957746479
H 4.307714507042253 -0.7637192957746466 -2.851282957746479
C 2.344694507042253 -3.565079295774647 -3.101282957746479
H 1.6334345070422536 -4.047909295774646 -2.4251929577464786
H 1.8561845070422536 -3.293109295774647 -4.041792957746479
H 3.1808045070422537 -4.243519295774647 -3.298122957746479
C 3.5156645070422536 -2.648489295774647 -1.1110629577464786
H 3.9311845070422535 -1.748249295774647 -0.6771029577464787
H 2.767184507042254 -3.1044092957746465 -0.45972295774647876
H 4.319224507042254 -3.371819295774647 -1.2863129577464787
C 2.963994507042253 3.381090704225353 2.401027042253521
H 3.3337945070422537 4.369820704225353 2.6912870422535216
H 3.120994507042253 2.671350704225353 3.2183370422535216
H 3.4665445070422534 3.0664207042253535 1.4881370422535212
C 1.2973745070422538 4.282440704225354 0.8488370422535213
H 1.7592145070422538 3.7367207042253527 0.02653704225352116
H 0.23311450704225378 4.4484607042253534 0.6605570422535213
H 1.7921845070422535 5.251370704225354 0.9736770422535213
C 0.7724845070422537 4.194670704225353 3.2772470422535216
H -0.2956954929577462 4.278220704225354 3.057857042253521
H 0.9298945070422537 3.612620704225354 4.190337042253521
H 1.2046345070422537 5.193640704225353 3.3918370422535213
N 2.876084507042253 -2.324759295774647 -2.4576629577464786
N 1.4527845070422536 3.504690704225353 2.1388470422535213
C -3.593905492957746 -3.637819295774647 0.8297870422535213
H -2.8952554929577463 -1.8680692957746468 1.7595270422535212
H -5.022615492957747 -1.2402792957746467 1.1579970422535213
H -4.898275492957747 -1.7933092957746464 -0.48931295774647876
H -3.883675492957746 0.07871070422535364 -1.2758929577464788
H -3.8751654929577466 -4.038529295774646 -0.1505529577464788
H -4.4603554929577465 -3.7321892957746465 1.4932570422535212
H -2.7953554929577464 -4.271929295774647 1.2313670422535212
H -5.648775492957746 1.147700704225353 0.9733970422535213
H -6.189795492957747 0.5254307042253537 -0.5943629577464788
H -5.2178854929577465 2.002970704225354 -0.5139729577464787
C 3.6710445070422537 1.0263707042253536 -0.27764295774647874
O 2.7356545070422538 1.6631507042253526 -0.7327029577464788
O 3.650814507042253 0.3883007042253537 0.7790570422535212
O 4.756604507042254 0.8696707042253538 -0.8334829577464786
O 3.8077563133050853 6.778449586691661 8.577403139790256
H 3.8396982231285834 6.813857737012652 7.609573953317936
H 2.8815520001618666 6.969967442848163 8.788183654516155
O -10.220193407699362 7.432235632580736 -8.357142391836646
H -10.249904598590849 8.064719736282996 -9.090660258421885
H -9.300758425344988 7.469069716029717 -8.053424582316879
O -4.9673708646410315 -4.500360994906884 3.846470196787162
H -4.139007918323591 -4.749053889117003 3.4095102095598584
H -5.028298793351745 -5.1101523172272945 4.59707280471345
O 6.020268226800636 0.20008704246450293 -6.807136670983324
H 5.345973980208832 0.30571730963691035 -7.494986125857193
H 5.812376509418473 0.896847774118541 -6.166615429361452
O 1.6755559169339003 5.019753425864159 9.074712931064873
H 0.7528057631490095 4.789076945567914 8.889543084631661
H 2.162028365515039 4.667307498222061 8.314391703451193
O 4.240179668424775 -10.088907651945583 8.4453688592619
H 4.647584751253897 -10.237327220519742 7.578789326241845
H 4.750901189174893 -9.356472460142637 8.821751858813247
O 3.922509807140055 -4.404833198536551 4.0690111619919795
H 4.572152471168632 -4.7872662541043045 3.460178899391707
H 4.176503593252944 -3.471467769601979 4.126265655141616
O -13.795100949006105 3.312419998840051 7.308246557857923
H -13.758793144140512 3.3438449121689677 6.340433778944505
H -12.866403394327754 3.3676694131899065 7.579226812578545
O 7.196112686739271 0.48589917202678207 3.3944738481905317
H 7.496583632287959 0.14746755915191445 4.251298574250648
H 7.70494674755409 -0.02701434789480095 2.748742043230956
O -5.598974686592133 -9.122446531725716 -10.639083517237623
H -5.5831949883289855 -9.228540291579833 -11.60213204776074
H -4.9685921160379705 -8.4056948506773 -10.472209952057879
O 7.893277550218455 3.2425646874125946 -0.9910814611480174
H 7.306542953757157 2.797926757437452 -0.3609965609616861
H 8.257529242798148 3.9858680491813656 -0.48731290204962363
O -4.363819919052022 8.897125052045615 9.10321733540505
H -4.289458762438144 8.792538962307136 10.06368572380743
H -4.972476461457137 8.19155725957723 8.83737292993685
O -8.600996860459237 -6.330551921312124 6.106698169069354
H -9.143474735429399 -5.756439102606562 6.668017671194315
H -8.63453787505027 -5.906197662940711 5.236203822136387
O 1.517223704203194 -5.00052636869191 2.879060320380985
H 0.6642871872474405 -4.707376633498631 3.2333622928557353
H 1.675636664449482 -5.847967543654957 3.321452378744669
O 12.682205630630632 -2.477747189321035 -0.2418593307079311
H 12.90924287566228 -2.848526213660481 -1.1078526109233895
H 12.774583413436726 -3.227348740998379 0.3652039306304129
O -9.785714060168306 -0.9660556810338186 2.6909190809431736
H -9.965613232778084 -0.8599052188487697 1.7446972655255526
H -10.082911800429486 -0.13025306980363194 3.0808799027502465
O 6.8995712311673705 -7.8687023567500765 1.399315498293132
H 7.733311492685961 -7.918873633385637 0.9080646700763553
H 6.841458239119103 -6.939356195937464 1.6674582547458412
O -3.3104470648963695 0.5059149267623746 5.645430509410723
H -2.4128331841956783 0.8147246320441299 5.840092380349132
H -3.823411345195476 0.7722323964378006 6.423186638787341
O 13.867372772869459 0.24256907663052818 1.718217101025504
H 13.799692410824953 0.18592315031154794 2.6831927300053193
H 13.614948292525039 -0.6419781455468057 1.413553289979276
O -4.346974215631854 -11.183165906228439 6.276164351783916
H -4.664984733606607 -10.960567912436208 5.388309183123449
H -5.114610117648953 -11.025469699967147 6.846102043786465
O -10.680275229067815 8.965335699104841 0.010256926794713322
H -10.661490718488494 8.957365581391318 0.9790453331487163
H -9.888495031896692 9.467189752025376 -0.23507666901900767
O -4.302287917020769 -2.2310217487386663 -6.0952699040916825
H -4.068383077667323 -2.211990119873202 -5.155113704234569
H -5.193146391355061 -1.850774476333637 -6.12256706209968
O -6.269100260639923 2.0396891944109723 3.568867105193683
H -6.903536005300467 2.580170486209046 4.0631733018100205
H -6.69607884697718 1.171757571151086 3.51102310416597
O 7.174030191152121 -8.43004428524271 6.973812248540908
H 7.054803567047152 -8.472955545287704 7.934494814618738
H 6.4368088572342685 -7.878973085143539 6.67084825474356
C -9.247877791574943 -8.648907027258556 -1.2412050214579233
O -9.980041111090603 -8.583557674745496 -2.1859190485486284
O -8.515714472059287 -8.714256379771616 -0.29649099436721915