146

C -5.3564454929577465 1.0091607042253532 -0.0734429577464788
C -4.079135492957747 0.16955070422535368 -0.19788295774647868
C -4.333545492957747 -1.2789292957746463 0.3017270422535212
C -3.1403854929577464 -2.1745492957746464 0.7330270422535212
C -2.905235492957746 0.902300704225353 0.41966704225352136
C -2.7423854929577463 1.056130704225354 1.8024770422535212
C -1.8861754929577463 1.3499307042253532 -0.4326129577464788
C -1.5304554929577463 1.5279207042253526 2.3254170422535214
H -3.5237954929577464 0.7301007042253529 2.484817042253521
C -0.6776454929577462 1.8010507042253527 0.08546704225352131
H -1.9759254929577463 1.2426607042253535 -1.5115229577464788
C -0.4680254929577463 1.8513207042253539 1.4698070422535212
H -1.3950654929577464 1.5446707042253527 3.404047042253521
H 0.1461845070422536 1.9972507042253538 -0.6030529577464789
C -1.8679654929577463 -2.0866092957746467 -0.08765295774647863
C -0.6628654929577462 -1.814079295774647 0.5787970422535212
C -1.8438954929577462 -2.213429295774647 -1.4808029577464787
C 0.5129345070422537 -1.5763292957746469 -0.13022295774647863
H -0.6401854929577462 -1.7032692957746463 1.6609470422535213
C -0.6547954929577462 -1.9962392957746466 -2.1933129577464787
H -2.7578654929577464 -2.4351492957746466 -2.026182957746479
C 0.5308845070422537 -1.645769295774647 -1.5261029577464789
H 1.4044045070422537 -1.2610992957746463 0.41551704225352126
H -0.6795654929577464 -2.0467992957746466 -3.2793129577464786
C 1.7843245070422535 -1.2521692957746469 -2.2771629577464787
H 1.4981245070422535 -0.9384492957746469 -3.290282957746479
H 2.241984507042254 -0.38631929577464685 -1.8135029577464787
C 0.9385645070422537 2.0647807042253534 1.9815670422535212
H 1.0508945070422537 1.5807407042253532 2.9609770422535213
H 1.6053245070422537 1.5496207042253536 1.3096170422535214
C 3.9676945070422533 -1.6881692957746468 -3.314052957746479
H 4.795084507042254 -2.398849295774647 -3.4044129577464783
H 3.548404507042253 -1.4816192957746468 -4.303802957746479
H 4.307714507042253 -0.7637192957746466 -2.851282957746479
C 2.344694507042253 -3.565079295774647 -3.101282957746479
H 1.6334345070422536 -4.047909295774646 -2.4251929577464786
H 1.8561845070422536 -3.293109295774647 -4.041792957746479
H 3.1808045070422537 -4.243519295774647 -3.298122957746479
C 3.5156645070422536 -2.648489295774647 -1.1110629577464786
H 3.9311845070422535 -1.748249295774647 -0.6771029577464787
H 2.767184507042254 -3.1044092957746465 -0.45972295774647876
H 4.319224507042254 -3.371819295774647 -1.2863129577464787
C 2.963994507042253 3.381090704225353 2.401027042253521
H 3.3337945070422537 4.369820704225353 2.6912870422535216
H 3.120994507042253 2.671350704225353 3.2183370422535216
H 3.4665445070422534 3.0664207042253535 1.4881370422535212
C 1.2973745070422538 4.282440704225354 0.8488370422535213
H 1.7592145070422538 3.7367207042253527 0.02653704225352116
H 0.23311450704225378 4.4484607042253534 0.6605570422535213
H 1.7921845070422535 5.251370704225354 0.9736770422535213
C 0.7724845070422537 4.194670704225353 3.2772470422535216
H -0.2956954929577462 4.278220704225354 3.057857042253521
H 0.9298945070422537 3.612620704225354 4.190337042253521
H 1.2046345070422537 5.193640704225353 3.3918370422535213
N 2.876084507042253 -2.324759295774647 -2.4576629577464786
N 1.4527845070422536 3.504690704225353 2.1388470422535213
C -3.593905492957746 -3.637819295774647 0.8297870422535213
H -2.8952554929577463 -1.8680692957746468 1.7595270422535212
H -5.022615492957747 -1.2402792957746467 1.1579970422535213
H -4.898275492957747 -1.7933092957746464 -0.48931295774647876
H -3.883675492957746 0.07871070422535364 -1.2758929577464788
H -3.8751654929577466 -4.038529295774646 -0.1505529577464788
H -4.4603554929577465 -3.7321892957746465 1.4932570422535212
H -2.7953554929577464 -4.271929295774647 1.2313670422535212
H -5.648775492957746 1.147700704225353 0.9733970422535213
H -6.189795492957747 0.5254307042253537 -0.5943629577464788
H -5.2178854929577465 2.002970704225354 -0.5139729577464787
C 3.6710445070422537 1.0263707042253536 -0.27764295774647874
O 2.7356545070422538 1.6631507042253526 -0.7327029577464788
O 3.650814507042253 0.3883007042253537 0.7790570422535212
O 4.756604507042254 0.8696707042253538 -0.8334829577464786
O 9.85488150926669 -2.176958029461227 5.8245345267421715
H 10.072478694575144 -2.174629368849454 6.768787352623882
H 9.903975329351052 -1.2430776967198907 5.570725020914563
O -6.026185847362482 9.58518358654059 -5.4407990596300655
H -6.059308466136619 9.751434459514211 -4.486738843364313
H -6.300747851495353 10.426850571681175 -5.834720798444893
O 2.6389062454968277 -0.9879092136497458 -7.186081557237897
H 2.537897080170287 -1.1371422597446577 -6.233981770779948
H 2.5528024722783482 -0.027611350950074165 -7.282911818168986
O 3.370576793589125 -7.313873006365694 -5.817212098862008
H 4.326599477606506 -7.261187698557663 -5.966249821890022
H 3.008071524277311 -6.605704364451793 -6.3704290984480565
O -4.698265806429099 -1.3216322725789684 7.120946113933534
H -4.6188417747907256 -0.7018814699605385 7.861599962065116
H -5.6478163575132925 -1.508803403320611 7.073168890776469
O -0.8903116761701715 -6.444444551819218 4.455550499775654
H -0.25427927492463276 -6.373566810128778 5.183153748255688
H -1.4786071540451902 -7.1645216650225345 4.728239564559298
O -9.130890366491732 5.1399484666467945 6.221152275192342
H -9.091786124311914 5.143884564164707 5.2529463455059595
H -8.362787999298108 4.611037305638321 6.484275215226502
O -12.365759766202922 -2.449379569967487 7.818081250318432
H -12.425866778620481 -2.2132744865320957 8.755955918669274
H -12.34920502934694 -1.594523859811246 7.362110198824041
O 5.016894049935656 -13.414380006258497 3.3022061637338362
H 5.369604652230985 -13.919828010791086 4.049925965960907
H 5.289969545051853 -13.924732228899106 2.5250753336203786
O 9.609520247802607 -1.6863649075121658 3.326503773203876
H 8.990393147439423 -2.423379456778491 3.4381216242207837
H 9.039454412888496 -0.9031048252479048 3.3043558230716363
O -4.840621937938174 -3.092465233378551 -2.8445204751883386
H -5.712222835255274 -2.6732662399278455 -2.9041144059694366
H -5.022212857347588 -4.032398758545822 -2.9945593053446364
O -6.514734525149472 -1.4305528595398882 -6.896380789658574
H -6.689844320574639 -0.7984141732064236 -7.609616092827703
H -7.206894001866711 -2.1003983839908877 -7.00213605649423
O -2.9930862506043105 -6.375442426029377 -1.4540387789342446
H -2.0678519398389854 -6.217157652821845 -1.2135086193840219
H -3.1768606457718542 -5.706308116311205 -2.130387942856836
O 3.1176932522121708 2.9251148400294245 -9.426585066148403
H 2.8672179105695026 3.64254232230828 -10.027856442317278
H 4.083879783808026 2.8913243882650184 -9.492187930661517
O -10.16250439066411 -4.827936503763654 1.401811563000337
H -10.579155815272943 -5.074696326705386 2.241143760079179
H -10.217336636699562 -3.8605765003798185 1.3887734286271423
O -9.688482246497767 -4.030935995470273 3.8796950855500616
H -10.546054438215272 -4.306756967823417 3.5226795619337845
H -9.848396705228858 -3.943291418666956 4.8313818713917644
O -6.170361756515601 12.041767285063948 -1.0451053724190542
H -5.933170405577682 12.793209765782956 -1.6090573367840248
H -5.4664061987206924 11.395954048222112 -1.2073822348164094
O 9.023046881708588 3.5378975746768146 -10.31933948592393
H 9.054064157762813 3.362371014610097 -11.271807707019692
H 9.229134017336992 2.680993768497994 -9.916591545166032
O 0.5350471550142115 -11.516158053670345 3.3510235524607355
H 0.6056146781605387 -11.072288491916282 2.492555501963077
H -0.4037263388533836 -11.438435693165538 3.578236021725054
O -12.70958996785373 -4.766497063719153 -2.568990515082405
H -13.397294819037914 -5.148056957505895 -2.0029150413059904
H -13.195172467416043 -4.447311972557816 -3.344421013579301
O 0.04087026580257902 -10.597518384210094 -5.842375459410382
H 0.03667167108055214 -10.622285334108309 -4.873697841781535
H -0.16609258898352675 -11.50823226631075 -6.10069415015485
O -4.535613249016896 0.013628951341581264 11.176543831892538
H -5.259113542550004 -0.4003896819975452 11.670611897451835
H -4.797183190554078 0.9445986949811473 11.114588635081331
O -6.483651872704762 -4.21308970887425 6.9595187452262195
H -7.110780171857935 -4.906144241690261 7.2151608150121405
H -7.025180595312866 -3.4105180400826 6.91967776954262
O -8.566826265316163 -6.635169624978812 6.492836057115682
H -8.578185273878425 -6.6090324557956475 5.524251947081053
H -9.173825569625382 -7.35719538321016 6.714630090666119
C 6.226428366277023 -4.524684585709392 8.654765952227628
O 5.638928288599992 -4.293957625725525 9.671833789673137
O 6.8139284439540555 -4.755411545693258 7.637698114782118