146

C -5.3564454929577465 1.0091607042253532 -0.0734429577464788
C -4.079135492957747 0.16955070422535368 -0.19788295774647868
C -4.333545492957747 -1.2789292957746463 0.3017270422535212
C -3.1403854929577464 -2.1745492957746464 0.7330270422535212
C -2.905235492957746 0.902300704225353 0.41966704225352136
C -2.7423854929577463 1.056130704225354 1.8024770422535212
C -1.8861754929577463 1.3499307042253532 -0.4326129577464788
C -1.5304554929577463 1.5279207042253526 2.3254170422535214
H -3.5237954929577464 0.7301007042253529 2.484817042253521
C -0.6776454929577462 1.8010507042253527 0.08546704225352131
H -1.9759254929577463 1.2426607042253535 -1.5115229577464788
C -0.4680254929577463 1.8513207042253539 1.4698070422535212
H -1.3950654929577464 1.5446707042253527 3.404047042253521
H 0.1461845070422536 1.9972507042253538 -0.6030529577464789
C -1.8679654929577463 -2.0866092957746467 -0.08765295774647863
C -0.6628654929577462 -1.814079295774647 0.5787970422535212
C -1.8438954929577462 -2.213429295774647 -1.4808029577464787
C 0.5129345070422537 -1.5763292957746469 -0.13022295774647863
H -0.6401854929577462 -1.7032692957746463 1.6609470422535213
C -0.6547954929577462 -1.9962392957746466 -2.1933129577464787
H -2.7578654929577464 -2.4351492957746466 -2.026182957746479
C 0.5308845070422537 -1.645769295774647 -1.5261029577464789
H 1.4044045070422537 -1.2610992957746463 0.41551704225352126
H -0.6795654929577464 -2.0467992957746466 -3.2793129577464786
C 1.7843245070422535 -1.2521692957746469 -2.2771629577464787
H 1.4981245070422535 -0.9384492957746469 -3.290282957746479
H 2.241984507042254 -0.38631929577464685 -1.8135029577464787
C 0.9385645070422537 2.0647807042253534 1.9815670422535212
H 1.0508945070422537 1.5807407042253532 2.9609770422535213
H 1.6053245070422537 1.5496207042253536 1.3096170422535214
C 3.9676945070422533 -1.6881692957746468 -3.314052957746479
H 4.795084507042254 -2.398849295774647 -3.4044129577464783
H 3.548404507042253 -1.4816192957746468 -4.303802957746479
H 4.307714507042253 -0.7637192957746466 -2.851282957746479
C 2.344694507042253 -3.565079295774647 -3.101282957746479
H 1.6334345070422536 -4.047909295774646 -2.4251929577464786
H 1.8561845070422536 -3.293109295774647 -4.041792957746479
H 3.1808045070422537 -4.243519295774647 -3.298122957746479
C 3.5156645070422536 -2.648489295774647 -1.1110629577464786
H 3.9311845070422535 -1.748249295774647 -0.6771029577464787
H 2.767184507042254 -3.1044092957746465 -0.45972295774647876
H 4.319224507042254 -3.371819295774647 -1.2863129577464787
C 2.963994507042253 3.381090704225353 2.401027042253521
H 3.3337945070422537 4.369820704225353 2.6912870422535216
H 3.120994507042253 2.671350704225353 3.2183370422535216
H 3.4665445070422534 3.0664207042253535 1.4881370422535212
C 1.2973745070422538 4.282440704225354 0.8488370422535213
H 1.7592145070422538 3.7367207042253527 0.02653704225352116
H 0.23311450704225378 4.4484607042253534 0.6605570422535213
H 1.7921845070422535 5.251370704225354 0.9736770422535213
C 0.7724845070422537 4.194670704225353 3.2772470422535216
H -0.2956954929577462 4.278220704225354 3.057857042253521
H 0.9298945070422537 3.612620704225354 4.190337042253521
H 1.2046345070422537 5.193640704225353 3.3918370422535213
N 2.876084507042253 -2.324759295774647 -2.4576629577464786
N 1.4527845070422536 3.504690704225353 2.1388470422535213
C -3.593905492957746 -3.637819295774647 0.8297870422535213
H -2.8952554929577463 -1.8680692957746468 1.7595270422535212
H -5.022615492957747 -1.2402792957746467 1.1579970422535213
H -4.898275492957747 -1.7933092957746464 -0.48931295774647876
H -3.883675492957746 0.07871070422535364 -1.2758929577464788
H -3.8751654929577466 -4.038529295774646 -0.1505529577464788
H -4.4603554929577465 -3.7321892957746465 1.4932570422535212
H -2.7953554929577464 -4.271929295774647 1.2313670422535212
H -5.648775492957746 1.147700704225353 0.9733970422535213
H -6.189795492957747 0.5254307042253537 -0.5943629577464788
H -5.2178854929577465 2.002970704225354 -0.5139729577464787
C 3.6710445070422537 1.0263707042253536 -0.27764295774647874
O 2.7356545070422538 1.6631507042253526 -0.7327029577464788
O 3.650814507042253 0.3883007042253537 0.7790570422535212
O 4.756604507042254 0.8696707042253538 -0.8334829577464786
O -2.078325297859973 6.924244315724962 -1.7136119849311202
H -2.064267881990635 7.789045094951948 -2.150520852096202
H -2.508702324871145 6.343116149262673 -2.3586140105598794
O -2.5854652275083962 -3.071391136081591 4.124852912956436
H -2.652444338054142 -2.547075223650428 3.3127113122352454
H -3.386937983518259 -3.615968738391437 4.118639963864806
O -6.862260718338887 7.160026639141492 -0.752911275274061
H -7.545724279682517 7.665024722546018 -0.28726994015309293
H -6.976735336630664 7.41219570247247 -1.681495288471429
O 3.250156038691043 2.2159784390302524 -2.424627920764796
H 3.9670496363376 2.8091626532993703 -2.154140556003876
H 3.044016039682483 2.4952898161264727 -3.329312064393589
O -7.128349092962749 6.351340750803798 6.13317318117962
H -6.215971837919012 6.219914460466287 6.431941036858531
H -7.639523344069375 6.396907532241034 6.955113871092847
O 5.419041386965762 -0.05512201070956024 8.695474321019129
H 5.8542390602715715 -0.785275274398864 9.160712489673708
H 5.574735488213784 -0.2485148974062108 7.758820445507097
O -8.142958815851916 -4.744983553006104 0.43964240943313054
H -7.340687138510186 -4.435786447069695 0.8865480620219497
H -8.805932854423453 -4.072561983923852 0.6570742422293065
O 4.020676599600332 -11.097447533359247 -3.0233307823657514
H 3.6079251812167095 -10.804090150960334 -2.197167923291122
H 3.8862223883125173 -12.057074077972855 -3.024281697672225
O -12.971042298242029 4.858282056675363 -5.466479816314233
H -12.629134460423936 5.117455109419721 -4.597632467196032
H -12.487531089624106 5.424443984557868 -6.086672953052456
O -9.762967744949556 6.013652230254099 -2.863557060748033
H -9.571601838079685 6.0062845605869954 -1.9136664543982542
H -10.662038835266657 5.657303363127587 -2.9239607340938556
O 8.968308261238395 -0.21252548568064678 -2.0533882464338014
H 9.08168292417223 0.7179165787940929 -2.299134268498503
H 9.801672157455574 -0.6284428681892664 -2.3207443604631974
O 0.5719502235856184 -1.5999948776380166 -10.377220715096636
H -0.3598081547891041 -1.8494665841384532 -10.284713694367028
H 0.5506836353774152 -0.6329705575681004 -10.435303767007653
O 2.8478107384650877 -3.645562727360472 5.650022292499723
H 2.9512591033334608 -4.237553711098029 6.41016206114724
H 3.247290805884785 -4.135570465269261 4.915672214659552
O 4.561247294152634 3.134315605582435 14.702019747021396
H 5.319630444270474 2.920170733688069 15.265903004760697
H 4.732907097272691 2.645345785129874 13.883238108866646
O 5.61896688958004 6.454220125253573 1.7008925637981727
H 4.893034826717111 6.34104195032972 1.069085079093791
H 5.1924419752365765 6.839822350238091 2.480860105322363
O -10.935051991927502 -5.474672345852293 7.507109665913685
H -11.097530127779908 -4.666436335494154 6.997872232263836
H -9.981520861647292 -5.621049952195381 7.415928942908147
O 5.7316884344933925 -6.573979391019147 6.792688301439579
H 6.079641655801899 -7.141519453611512 7.496814845488083
H 4.830038730988529 -6.368269174472095 7.08195126705695
O -7.7619678057708414 1.2289158263088549 -3.4126336390996244
H -8.572772845269736 1.2038083420772243 -2.882603301233238
H -7.051344871306077 1.1763231912727905 -2.755967053949556
O 11.76578976970563 -10.765714770351817 4.7296591080106545
H 12.533151666623429 -10.611658174312495 5.300964316524893
H 11.590234581248692 -9.898487797773434 4.334615188758147
O 3.8045282457341494 8.00924644537757 2.1845046221038285
H 3.38771022057402 7.866012267805745 1.3215364528316735
H 4.552562250511627 8.593378422994949 1.9890643378188924
O -2.821340570011831 -9.221613118892137 -8.749733676171905
H -2.8758497202692657 -9.182077216044565 -9.716394434568688
H -2.9648887349339335 -8.305183558633708 -8.469532445389392
O -11.998656775825493 3.7525212439864197 9.123742591202731
H -12.832217073939608 4.122482460128654 8.796216584817786
H -11.960752080304028 2.870751582875902 8.723733287432848
O -6.940409425988867 6.595945496110663 -7.775626269039087
H -6.981936134904871 7.12356583956195 -6.9639245611913365
H -6.605536807649031 5.736338205909417 -7.4791510079816215
O -0.28098317343329127 6.079540623705308 4.203489206009009
H -0.07375872246882365 6.746580948471843 4.875116028699877
H -1.2411459156634495 6.149085493225147 4.092976926797463
C 11.951168048525519 4.274607319389824 -0.5742878146751389
O 12.81778654545234 3.65655933582258 -1.1218344593482326
O 11.0845495515987 4.89265530295707 -0.026741170002045678