146

C -5.3564454929577465 1.0091607042253532 -0.0734429577464788
C -4.079135492957747 0.16955070422535368 -0.19788295774647868
C -4.333545492957747 -1.2789292957746463 0.3017270422535212
C -3.1403854929577464 -2.1745492957746464 0.7330270422535212
C -2.905235492957746 0.902300704225353 0.41966704225352136
C -2.7423854929577463 1.056130704225354 1.8024770422535212
C -1.8861754929577463 1.3499307042253532 -0.4326129577464788
C -1.5304554929577463 1.5279207042253526 2.3254170422535214
H -3.5237954929577464 0.7301007042253529 2.484817042253521
C -0.6776454929577462 1.8010507042253527 0.08546704225352131
H -1.9759254929577463 1.2426607042253535 -1.5115229577464788
C -0.4680254929577463 1.8513207042253539 1.4698070422535212
H -1.3950654929577464 1.5446707042253527 3.404047042253521
H 0.1461845070422536 1.9972507042253538 -0.6030529577464789
C -1.8679654929577463 -2.0866092957746467 -0.08765295774647863
C -0.6628654929577462 -1.814079295774647 0.5787970422535212
C -1.8438954929577462 -2.213429295774647 -1.4808029577464787
C 0.5129345070422537 -1.5763292957746469 -0.13022295774647863
H -0.6401854929577462 -1.7032692957746463 1.6609470422535213
C -0.6547954929577462 -1.9962392957746466 -2.1933129577464787
H -2.7578654929577464 -2.4351492957746466 -2.026182957746479
C 0.5308845070422537 -1.645769295774647 -1.5261029577464789
H 1.4044045070422537 -1.2610992957746463 0.41551704225352126
H -0.6795654929577464 -2.0467992957746466 -3.2793129577464786
C 1.7843245070422535 -1.2521692957746469 -2.2771629577464787
H 1.4981245070422535 -0.9384492957746469 -3.290282957746479
H 2.241984507042254 -0.38631929577464685 -1.8135029577464787
C 0.9385645070422537 2.0647807042253534 1.9815670422535212
H 1.0508945070422537 1.5807407042253532 2.9609770422535213
H 1.6053245070422537 1.5496207042253536 1.3096170422535214
C 3.9676945070422533 -1.6881692957746468 -3.314052957746479
H 4.795084507042254 -2.398849295774647 -3.4044129577464783
H 3.548404507042253 -1.4816192957746468 -4.303802957746479
H 4.307714507042253 -0.7637192957746466 -2.851282957746479
C 2.344694507042253 -3.565079295774647 -3.101282957746479
H 1.6334345070422536 -4.047909295774646 -2.4251929577464786
H 1.8561845070422536 -3.293109295774647 -4.041792957746479
H 3.1808045070422537 -4.243519295774647 -3.298122957746479
C 3.5156645070422536 -2.648489295774647 -1.1110629577464786
H 3.9311845070422535 -1.748249295774647 -0.6771029577464787
H 2.767184507042254 -3.1044092957746465 -0.45972295774647876
H 4.319224507042254 -3.371819295774647 -1.2863129577464787
C 2.963994507042253 3.381090704225353 2.401027042253521
H 3.3337945070422537 4.369820704225353 2.6912870422535216
H 3.120994507042253 2.671350704225353 3.2183370422535216
H 3.4665445070422534 3.0664207042253535 1.4881370422535212
C 1.2973745070422538 4.282440704225354 0.8488370422535213
H 1.7592145070422538 3.7367207042253527 0.02653704225352116
H 0.23311450704225378 4.4484607042253534 0.6605570422535213
H 1.7921845070422535 5.251370704225354 0.9736770422535213
C 0.7724845070422537 4.194670704225353 3.2772470422535216
H -0.2956954929577462 4.278220704225354 3.057857042253521
H 0.9298945070422537 3.612620704225354 4.190337042253521
H 1.2046345070422537 5.193640704225353 3.3918370422535213
N 2.876084507042253 -2.324759295774647 -2.4576629577464786
N 1.4527845070422536 3.504690704225353 2.1388470422535213
C -3.593905492957746 -3.637819295774647 0.8297870422535213
H -2.8952554929577463 -1.8680692957746468 1.7595270422535212
H -5.022615492957747 -1.2402792957746467 1.1579970422535213
H -4.898275492957747 -1.7933092957746464 -0.48931295774647876
H -3.883675492957746 0.07871070422535364 -1.2758929577464788
H -3.8751654929577466 -4.038529295774646 -0.1505529577464788
H -4.4603554929577465 -3.7321892957746465 1.4932570422535212
H -2.7953554929577464 -4.271929295774647 1.2313670422535212
H -5.648775492957746 1.147700704225353 0.9733970422535213
H -6.189795492957747 0.5254307042253537 -0.5943629577464788
H -5.2178854929577465 2.002970704225354 -0.5139729577464787
C 3.6710445070422537 1.0263707042253536 -0.27764295774647874
O 2.7356545070422538 1.6631507042253526 -0.7327029577464788
O 3.650814507042253 0.3883007042253537 0.7790570422535212
O 4.756604507042254 0.8696707042253538 -0.8334829577464786
O -2.8840691843549937 2.7361901306490495 10.494701022691384
H -3.372196069128746 2.122061883986798 9.925889983845773
H -1.9589558570702366 2.6105430398970277 10.235201341447498
O 1.6437201747837595 -11.140428302279371 -0.06062021840781795
H 1.2434168927246954 -11.781560975520454 0.5457406762543346
H 1.9829494610147573 -10.445843448079861 0.5237061595521828
O -11.063268229741668 5.474192741956479 1.7656848966220835
H -11.509493636853655 4.615600112859605 1.8173466833533007
H -10.139021837251647 5.247049551364583 1.5836505008697648
O -6.725260928950127 11.606849208210939 -0.3680841893451765
H -7.693377362934783 11.579752121165502 -0.39944778324777275
H -6.457072572191534 10.718647046270386 -0.6476085516523815
O 3.72501786723027 -10.387464042951462 -2.7802742935709954
H 4.027664160168092 -10.87974729057785 -2.0024376896640996
H 4.500429623587011 -10.367710031215474 -3.361056810029685
O -2.2285763915800647 -8.358137411374427 -8.970620657398475
H -3.0310710258210705 -8.770890707436521 -8.617627122749083
H -1.5524283986050338 -9.046405036956884 -8.880767936399488
O -2.088318084916451 9.242793676593433 -4.378583529175913
H -1.2707047458204164 9.512861649977443 -3.9341298483671174
H -1.7821913322337988 8.714496404219643 -5.1310131588386385
O -5.294181986911131 -5.6007973301821945 -10.515266997641318
H -5.409934058820454 -5.459672680119549 -11.46692483945916
H -6.1997970671686975 -5.652276619839278 -10.174425167100399
O 1.508019359850013 3.8513428612071747 -14.02615117135802
H 1.9537049262140354 3.203935378647415 -14.59289210367226
H 1.6701995824148348 3.5267646763067573 -13.127647681328305
O 5.628891736465176 4.648352132379836 2.0065753309749956
H 5.934295345003388 5.100082995560363 1.2055539704345812
H 6.239646875996427 4.953036369749698 2.694403521248197
O -2.871172681364009 -5.320170938930441 6.262754519241367
H -2.5339707898270363 -5.075996681189983 5.387745277518295
H -2.1919659604702146 -5.91280015980061 6.618325582692144
O -10.985364146081789 -0.7313498801459914 -6.267360997237744
H -10.330336654716062 -1.438038992279511 -6.369815090601852
H -11.337162080601246 -0.865928409778872 -5.374562712668551
O -7.695956868533798 7.027330200554013 -4.417810009520807
H -7.806462187621605 7.9855424070725505 -4.510466896108785
H -8.0858372871485 6.667275888276166 -5.228560338346488
O 0.8521692651099602 -3.573108239242425 4.674067218607105
H 0.5875290853991075 -4.4015844185736155 5.101337803205908
H 1.331015444104329 -3.8606716690299163 3.8822493386553143
O -1.0328911506374094 3.681006069517136 -5.908523024630725
H -1.3293737981403777 3.492953574728109 -5.005360992748707
H -1.8295083561481789 4.007615102072473 -6.353145912072968
O -4.112319153335855 -3.585851043074737 9.240204160549144
H -3.818739068623625 -3.6815181581800793 10.158695256775871
H -3.686197627020562 -4.3245748281996965 8.780128559803595
O -1.3594082426180776 0.09240098441910186 -7.3373589859606785
H -1.4165571753186517 1.0483802167675096 -7.189693608469081
H -0.5387243542362087 -0.018053535544099386 -7.8405882564429445
O 0.24149790179879993 -7.263504333356547 4.525165487000637
H -0.16507490315603413 -6.837552174776619 5.294730734248887
H -0.014869579827792023 -8.19410887621748 4.610093947901744
O -2.374664585268586 5.7646343497829635 2.2394353256991044
H -2.1700587426849447 5.603708973657693 3.172819935278446
H -1.5955870016603448 5.432724996309544 1.7684403744565256
O -6.627837334939849 -1.0742064258675708 -3.749793880305865
H -6.32515681471754 -1.3663973137640808 -4.622706444431392
H -5.955326883287263 -1.416829641905455 -3.1420924992395625
O 5.595590636829595 3.490064150225383 -1.849476518926134
H 4.63128087083013 3.5495495853796353 -1.923877561274797
H 5.746766111919825 3.3017258933477622 -0.9110541081603096
O -7.440674399388717 -3.3339842775903588 -3.755462412809332
H -7.554224456453893 -2.88037102578539 -4.604172468851687
H -7.067193438802072 -2.6540578844347147 -3.1747955407823216
O 10.908097263587166 -4.782183040720835 1.233290926521704
H 10.552048360706921 -3.9533534459459276 1.5871807942532286
H 11.866659565809018 -4.69012168565589 1.3412027607325587
O 7.86945039908535 -2.232252712398248 -6.763076122145603
H 7.033409713862985 -2.602391255006428 -6.442138762480491
H 7.597540627142275 -1.482301193171005 -7.313166786518864
C -7.46505895984962 -8.419831828451532 0.2233889061436557
O -7.265748252650751 -8.456457734778184 -0.9563365035520238
O -7.664369667048489 -8.383205922124878 1.4031143158393347