146

C -5.3564454929577465 1.0091607042253532 -0.0734429577464788
C -4.079135492957747 0.16955070422535368 -0.19788295774647868
C -4.333545492957747 -1.2789292957746463 0.3017270422535212
C -3.1403854929577464 -2.1745492957746464 0.7330270422535212
C -2.905235492957746 0.902300704225353 0.41966704225352136
C -2.7423854929577463 1.056130704225354 1.8024770422535212
C -1.8861754929577463 1.3499307042253532 -0.4326129577464788
C -1.5304554929577463 1.5279207042253526 2.3254170422535214
H -3.5237954929577464 0.7301007042253529 2.484817042253521
C -0.6776454929577462 1.8010507042253527 0.08546704225352131
H -1.9759254929577463 1.2426607042253535 -1.5115229577464788
C -0.4680254929577463 1.8513207042253539 1.4698070422535212
H -1.3950654929577464 1.5446707042253527 3.404047042253521
H 0.1461845070422536 1.9972507042253538 -0.6030529577464789
C -1.8679654929577463 -2.0866092957746467 -0.08765295774647863
C -0.6628654929577462 -1.814079295774647 0.5787970422535212
C -1.8438954929577462 -2.213429295774647 -1.4808029577464787
C 0.5129345070422537 -1.5763292957746469 -0.13022295774647863
H -0.6401854929577462 -1.7032692957746463 1.6609470422535213
C -0.6547954929577462 -1.9962392957746466 -2.1933129577464787
H -2.7578654929577464 -2.4351492957746466 -2.026182957746479
C 0.5308845070422537 -1.645769295774647 -1.5261029577464789
H 1.4044045070422537 -1.2610992957746463 0.41551704225352126
H -0.6795654929577464 -2.0467992957746466 -3.2793129577464786
C 1.7843245070422535 -1.2521692957746469 -2.2771629577464787
H 1.4981245070422535 -0.9384492957746469 -3.290282957746479
H 2.241984507042254 -0.38631929577464685 -1.8135029577464787
C 0.9385645070422537 2.0647807042253534 1.9815670422535212
H 1.0508945070422537 1.5807407042253532 2.9609770422535213
H 1.6053245070422537 1.5496207042253536 1.3096170422535214
C 3.9676945070422533 -1.6881692957746468 -3.314052957746479
H 4.795084507042254 -2.398849295774647 -3.4044129577464783
H 3.548404507042253 -1.4816192957746468 -4.303802957746479
H 4.307714507042253 -0.7637192957746466 -2.851282957746479
C 2.344694507042253 -3.565079295774647 -3.101282957746479
H 1.6334345070422536 -4.047909295774646 -2.4251929577464786
H 1.8561845070422536 -3.293109295774647 -4.041792957746479
H 3.1808045070422537 -4.243519295774647 -3.298122957746479
C 3.5156645070422536 -2.648489295774647 -1.1110629577464786
H 3.9311845070422535 -1.748249295774647 -0.6771029577464787
H 2.767184507042254 -3.1044092957746465 -0.45972295774647876
H 4.319224507042254 -3.371819295774647 -1.2863129577464787
C 2.963994507042253 3.381090704225353 2.401027042253521
H 3.3337945070422537 4.369820704225353 2.6912870422535216
H 3.120994507042253 2.671350704225353 3.2183370422535216
H 3.4665445070422534 3.0664207042253535 1.4881370422535212
C 1.2973745070422538 4.282440704225354 0.8488370422535213
H 1.7592145070422538 3.7367207042253527 0.02653704225352116
H 0.23311450704225378 4.4484607042253534 0.6605570422535213
H 1.7921845070422535 5.251370704225354 0.9736770422535213
C 0.7724845070422537 4.194670704225353 3.2772470422535216
H -0.2956954929577462 4.278220704225354 3.057857042253521
H 0.9298945070422537 3.612620704225354 4.190337042253521
H 1.2046345070422537 5.193640704225353 3.3918370422535213
N 2.876084507042253 -2.324759295774647 -2.4576629577464786
N 1.4527845070422536 3.504690704225353 2.1388470422535213
C -3.593905492957746 -3.637819295774647 0.8297870422535213
H -2.8952554929577463 -1.8680692957746468 1.7595270422535212
H -5.022615492957747 -1.2402792957746467 1.1579970422535213
H -4.898275492957747 -1.7933092957746464 -0.48931295774647876
H -3.883675492957746 0.07871070422535364 -1.2758929577464788
H -3.8751654929577466 -4.038529295774646 -0.1505529577464788
H -4.4603554929577465 -3.7321892957746465 1.4932570422535212
H -2.7953554929577464 -4.271929295774647 1.2313670422535212
H -5.648775492957746 1.147700704225353 0.9733970422535213
H -6.189795492957747 0.5254307042253537 -0.5943629577464788
H -5.2178854929577465 2.002970704225354 -0.5139729577464787
C 3.6710445070422537 1.0263707042253536 -0.27764295774647874
O 2.7356545070422538 1.6631507042253526 -0.7327029577464788
O 3.650814507042253 0.3883007042253537 0.7790570422535212
O 4.756604507042254 0.8696707042253538 -0.8334829577464786
O -9.744661225787691 -0.1584230504681884 -8.6606661248979
H -9.92076487364317 0.7832237098017836 -8.514870922696115
H -9.070659167728714 -0.37564159268431174 -7.999228845218441
O 7.290959529369919 -12.534127260461785 -6.766235776906184
H 7.61123102575345 -12.70109839014347 -7.665409935430036
H 6.338019429271687 -12.70055876731547 -6.822517776259266
O 8.679946163056522 -5.152265633236931 5.18276247239932
H 9.50467286409068 -4.78109099898273 5.530645522270362
H 8.44275848387028 -5.8381147196462635 5.824880047157813
O -3.782416021458743 10.437979743493546 2.3005325357040665
H -4.091989614813764 11.098819400311791 1.6630197945187577
H -4.4936792280148525 9.78018440443241 2.319816913032945
O 1.6460296703246704 1.6212431674637175 9.60444433660236
H 2.2230102491127273 1.3494282222975074 10.333949240071618
H 2.261323482141749 1.8420409999943246 8.889165519224553
O -1.2019288351408974 -3.218029310703133 -12.00491681092475
H -1.1139202821971042 -2.5838935599421626 -12.732305084899222
H -0.29351451373651916 -3.3419748091032644 -11.691256360128406
O -4.262850265229317 0.8654596184774039 -6.447281190070051
H -4.381057382357012 0.7480876445412016 -7.401858716567862
H -3.5414983505051865 0.25808275560312854 -6.224331182514916
O -2.82947100228167 -2.66406715100912 13.330462152639155
H -3.564625548499607 -3.2895096052445627 13.416117780096117
H -3.2393880134864697 -1.799018524203623 13.480864484691715
O -7.3769642087477285 -2.041020318790969 0.7126531259199701
H -6.602979073987014 -2.183419830895875 1.2780173863943345
H -7.190671992907868 -2.5708473790209156 -0.07699264331175715
O 7.233991881801398 -10.769430856048771 -5.3253010131283665
H 6.537409576590484 -11.036651880389991 -4.706969893810343
H 7.451503031687823 -9.864393012901097 -5.0559363041450105
O -2.03862452737628 -1.5834548326830455 9.34188558029739
H -1.2756368936386293 -1.1089826441324195 8.978989768864686
H -1.6434814140924185 -2.3014444608421654 9.858910490896742
O 6.1015912270423165 5.369418614257095 -5.739858171161361
H 5.978308636342598 5.645432395449964 -4.819214291953999
H 6.310246533354404 6.193316963884131 -6.205278859280892
O -5.809605305178245 6.730692941296082 6.872694796477515
H -5.827406144492842 6.7332971846328515 5.903858533254291
H -5.8149316738263 7.670318555839748 7.109416740095891
O -4.1708073044529 -6.2872753446907 -8.007989491727734
H -4.19170940146726 -5.655149555514072 -8.742119892881528
H -5.093655154380473 -6.338637107154612 -7.716998496092719
O -5.97572662223133 10.341846562405827 1.2847047292281464
H -6.437778894769167 11.127173052254346 0.9549512475409481
H -6.420594414144227 9.60465273292739 0.8401826827586154
O -2.6547430976378523 4.490977049041376 -3.2145601222814504
H -3.159332999925867 5.0109521802284505 -2.5711455977671536
H -2.375323743081033 3.7086582343325647 -2.7156973748732574
O -2.930947527400757 7.454291117033392 10.65243141077703
H -2.8262561120073997 7.681276658618216 11.588638988376346
H -2.956508344934281 6.485638488550156 10.647884517383059
O 15.081497139757685 -1.3782879740964562 -0.6487362632684728
H 15.634978753798935 -1.321214805537271 -1.442063505488799
H 15.016323399451508 -2.329676022984601 -0.47676211315482586
O 6.152166409266027 -0.3014359215157485 -6.017821583349824
H 5.816687224192162 0.6052999625243485 -5.95262104749159
H 6.123749189757083 -0.49382100394258055 -6.9671067807457385
O 12.232776225945432 3.107561918611098 1.2855128313704138
H 12.173427946355352 3.0592303786734796 0.31953705483305284
H 11.843936019115954 3.9685383493016433 1.5011162257040347
O 6.0672750487859695 2.5744104942155683 -9.020062397398968
H 6.690254971697605 2.6411034422603303 -9.75926157436693
H 5.291495568849168 2.1407673632270754 -9.406173492493995
O -1.1958906246244823 -2.6131756072332637 -7.347191322479526
H -0.9145692332486257 -2.7435425467255965 -8.265249105378706
H -1.7420240801605056 -1.8134549547255623 -7.381059759067853
O 1.3548516457816966 7.171772369320408 -4.570941504401883
H 0.8450338046290997 6.9395936084977174 -5.36160334663619
H 1.3246820619971524 8.140053904171861 -4.548973123032775
O 8.581177512223046 10.207436362624271 0.5080152608173054
H 8.006128376168599 10.532772679527334 1.2168467844722453
H 9.005288147997142 9.424984339272072 0.8912396651489445
C 8.313360264102352 -2.016244773044046 5.848479923152934
O 7.326568591615487 -2.59951953837395 6.1932276577936785
O 9.300151936589215 -1.4329700077141427 5.50373218851219