146

C -5.3564454929577465 1.0091607042253532 -0.0734429577464788
C -4.079135492957747 0.16955070422535368 -0.19788295774647868
C -4.333545492957747 -1.2789292957746463 0.3017270422535212
C -3.1403854929577464 -2.1745492957746464 0.7330270422535212
C -2.905235492957746 0.902300704225353 0.41966704225352136
C -2.7423854929577463 1.056130704225354 1.8024770422535212
C -1.8861754929577463 1.3499307042253532 -0.4326129577464788
C -1.5304554929577463 1.5279207042253526 2.3254170422535214
H -3.5237954929577464 0.7301007042253529 2.484817042253521
C -0.6776454929577462 1.8010507042253527 0.08546704225352131
H -1.9759254929577463 1.2426607042253535 -1.5115229577464788
C -0.4680254929577463 1.8513207042253539 1.4698070422535212
H -1.3950654929577464 1.5446707042253527 3.404047042253521
H 0.1461845070422536 1.9972507042253538 -0.6030529577464789
C -1.8679654929577463 -2.0866092957746467 -0.08765295774647863
C -0.6628654929577462 -1.814079295774647 0.5787970422535212
C -1.8438954929577462 -2.213429295774647 -1.4808029577464787
C 0.5129345070422537 -1.5763292957746469 -0.13022295774647863
H -0.6401854929577462 -1.7032692957746463 1.6609470422535213
C -0.6547954929577462 -1.9962392957746466 -2.1933129577464787
H -2.7578654929577464 -2.4351492957746466 -2.026182957746479
C 0.5308845070422537 -1.645769295774647 -1.5261029577464789
H 1.4044045070422537 -1.2610992957746463 0.41551704225352126
H -0.6795654929577464 -2.0467992957746466 -3.2793129577464786
C 1.7843245070422535 -1.2521692957746469 -2.2771629577464787
H 1.4981245070422535 -0.9384492957746469 -3.290282957746479
H 2.241984507042254 -0.38631929577464685 -1.8135029577464787
C 0.9385645070422537 2.0647807042253534 1.9815670422535212
H 1.0508945070422537 1.5807407042253532 2.9609770422535213
H 1.6053245070422537 1.5496207042253536 1.3096170422535214
C 3.9676945070422533 -1.6881692957746468 -3.314052957746479
H 4.795084507042254 -2.398849295774647 -3.4044129577464783
H 3.548404507042253 -1.4816192957746468 -4.303802957746479
H 4.307714507042253 -0.7637192957746466 -2.851282957746479
C 2.344694507042253 -3.565079295774647 -3.101282957746479
H 1.6334345070422536 -4.047909295774646 -2.4251929577464786
H 1.8561845070422536 -3.293109295774647 -4.041792957746479
H 3.1808045070422537 -4.243519295774647 -3.298122957746479
C 3.5156645070422536 -2.648489295774647 -1.1110629577464786
H 3.9311845070422535 -1.748249295774647 -0.6771029577464787
H 2.767184507042254 -3.1044092957746465 -0.45972295774647876
H 4.319224507042254 -3.371819295774647 -1.2863129577464787
C 2.963994507042253 3.381090704225353 2.401027042253521
H 3.3337945070422537 4.369820704225353 2.6912870422535216
H 3.120994507042253 2.671350704225353 3.2183370422535216
H 3.4665445070422534 3.0664207042253535 1.4881370422535212
C 1.2973745070422538 4.282440704225354 0.8488370422535213
H 1.7592145070422538 3.7367207042253527 0.02653704225352116
H 0.23311450704225378 4.4484607042253534 0.6605570422535213
H 1.7921845070422535 5.251370704225354 0.9736770422535213
C 0.7724845070422537 4.194670704225353 3.2772470422535216
H -0.2956954929577462 4.278220704225354 3.057857042253521
H 0.9298945070422537 3.612620704225354 4.190337042253521
H 1.2046345070422537 5.193640704225353 3.3918370422535213
N 2.876084507042253 -2.324759295774647 -2.4576629577464786
N 1.4527845070422536 3.504690704225353 2.1388470422535213
C -3.593905492957746 -3.637819295774647 0.8297870422535213
H -2.8952554929577463 -1.8680692957746468 1.7595270422535212
H -5.022615492957747 -1.2402792957746467 1.1579970422535213
H -4.898275492957747 -1.7933092957746464 -0.48931295774647876
H -3.883675492957746 0.07871070422535364 -1.2758929577464788
H -3.8751654929577466 -4.038529295774646 -0.1505529577464788
H -4.4603554929577465 -3.7321892957746465 1.4932570422535212
H -2.7953554929577464 -4.271929295774647 1.2313670422535212
H -5.648775492957746 1.147700704225353 0.9733970422535213
H -6.189795492957747 0.5254307042253537 -0.5943629577464788
H -5.2178854929577465 2.002970704225354 -0.5139729577464787
C 3.6710445070422537 1.0263707042253536 -0.27764295774647874
O 2.7356545070422538 1.6631507042253526 -0.7327029577464788
O 3.650814507042253 0.3883007042253537 0.7790570422535212
O 4.756604507042254 0.8696707042253538 -0.8334829577464786
O 12.381908469979605 -0.0017844218538631829 3.274953181978092
H 13.070319030519904 0.6399055312019866 3.5058043487149626
H 11.755755732276265 0.5089274709481828 2.740099878803137
O -7.425840145541259 4.642795630617427 -6.442904764839227
H -7.4745635843763845 4.456674556810333 -5.493193056322914
H -7.628996024116049 5.588097929428245 -6.506882863931712
O 9.67410761204762 -2.096531436449376 -7.468097800774526
H 9.962514919220268 -2.8009640667801543 -8.067733733149066
H 9.307461105397314 -1.4217022829570738 -8.05897671989247
O -1.6396412939443923 -6.809394050250942 5.06495597372038
H -1.2095161365530864 -6.228833954929453 4.419270538233868
H -2.586017129019078 -6.659103077102051 4.920916581619997
O -7.810134586856758 3.7146112323925866 2.4673921466275823
H -7.9557507238183724 4.05969209879112 1.573701767803901
H -7.977883138043267 4.47618179993745 3.042572673526939
O -4.298302530644576 10.325174424475867 4.308580588684565
H -5.050067747869157 10.935052256149643 4.265389785217032
H -4.3032239795785125 9.88605373581872 3.44480356628025
O 3.0710272310007967 -5.8813647560524664 11.587249860681984
H 3.3203174600466436 -5.77436062878786 12.517503511763564
H 3.383172595383623 -6.770649819588722 11.362084828837272
O -2.018758304513522 7.086773596668991 -3.8862317375716033
H -2.3156805411146117 6.805815979384809 -4.764791558871099
H -1.1982249120184632 7.571862399658709 -4.060518137828625
O -8.946956450846287 -2.33543144296141 -7.490126015007958
H -8.929446273663867 -1.9904779424350707 -6.584770928276975
H -9.186800500670397 -3.2678838766147917 -7.380722015822124
O 12.490795123562751 -0.016402080497256222 -8.239451133083515
H 13.413448201719792 0.22521187783988594 -8.068274763791495
H 12.03315010773744 0.20880444884324945 -7.415554899973631
O -3.3362411147361004 -1.3487803629904207 8.783875464692656
H -2.60270076348841 -1.7039799553119157 8.259738879816098
H -3.053170320208869 -1.4794988463155612 9.70134238382538
O 2.0361895539183115 -10.34963508225886 -4.687474775316025
H 1.2740205901101769 -9.867108512508363 -5.041358848131484
H 1.6577038712033483 -10.906318408315755 -3.990471040196894
O -3.1236769258891375 -11.963192264483254 -3.788463106507742
H -3.4731896587104503 -11.567600593490166 -2.9758651515898897
H -2.463360387227266 -12.598889349866553 -3.4740855807448767
O -2.461940641138437 2.085262528072758 8.946686436936268
H -3.0746972602884046 1.4913758166528404 8.487561991293544
H -1.9852246719912947 1.5032017914878542 9.557349296447422
O 0.6841067123004674 10.762150748779304 2.6485311074700384
H 1.3145173141949424 11.400729349890842 2.2827891217458394
H 1.0902321308323901 9.901507773225777 2.465999583199179
O 7.969985615515763 2.1522340111426557 -11.373984535509551
H 8.657589184171957 2.7673690082773286 -11.670257424197318
H 7.729645258819373 2.476481092645024 -10.493040560344134
O -1.8653208980764382 2.691982067125731 -3.7416829828781193
H -2.162003163544173 3.2146683219575607 -4.501779075005167
H -2.5953359263438465 2.764346694763762 -3.1085926548280507
O -3.095227860421491 5.686108507438013 0.17447895157357207
H -2.3889170294048103 6.23404941157306 0.5484483787520448
H -3.138460188908351 5.961335539090561 -0.7536067077927017
O 7.133898655386876 2.6825158751100715 7.791054969361401
H 7.8112475911823935 2.5231114269893924 8.465410956949576
H 7.641942130641301 2.915713136276798 6.9995546162750975
O -4.285695894542885 -1.591561753745494 -13.941461806302698
H -3.7598268020316272 -1.7455775932437876 -14.740654008232262
H -3.673563847990966 -1.789290883758144 -13.216782916704968
O 2.8115451955216386 12.524188605304026 -6.122772434083643
H 2.7447130953632923 12.470788819457375 -5.157552619657957
H 1.944084552487813 12.855719442354374 -6.399469526898216
O -11.11456224503058 4.416244858527776 -4.944663728685045
H -11.73495434388771 4.679838603572377 -5.640795424665774
H -10.444497934589432 5.116199060471703 -4.950978738903827
O -1.219733076146598 13.726150748215808 -2.211262236155751
H -1.3350143251900528 14.340168413671014 -2.951978036600108
H -0.8841160094797216 12.917915465101137 -2.6272897063911516
O -1.2601963420923123 -11.995005375637577 -6.897026620823768
H -0.9073017549498141 -12.342280217941063 -7.7299929773884335
H -0.4818912339117407 -11.925483289244085 -6.3239910352066735
C -9.509313420076257 0.38334895352537224 -9.96304580432486
O -9.625274418965406 0.8511338905951571 -8.867350337195765
O -9.393352421187107 -0.08443598354441306 -11.058741271453956