146

C -5.3564454929577465 1.0091607042253532 -0.0734429577464788
C -4.079135492957747 0.16955070422535368 -0.19788295774647868
C -4.333545492957747 -1.2789292957746463 0.3017270422535212
C -3.1403854929577464 -2.1745492957746464 0.7330270422535212
C -2.905235492957746 0.902300704225353 0.41966704225352136
C -2.7423854929577463 1.056130704225354 1.8024770422535212
C -1.8861754929577463 1.3499307042253532 -0.4326129577464788
C -1.5304554929577463 1.5279207042253526 2.3254170422535214
H -3.5237954929577464 0.7301007042253529 2.484817042253521
C -0.6776454929577462 1.8010507042253527 0.08546704225352131
H -1.9759254929577463 1.2426607042253535 -1.5115229577464788
C -0.4680254929577463 1.8513207042253539 1.4698070422535212
H -1.3950654929577464 1.5446707042253527 3.404047042253521
H 0.1461845070422536 1.9972507042253538 -0.6030529577464789
C -1.8679654929577463 -2.0866092957746467 -0.08765295774647863
C -0.6628654929577462 -1.814079295774647 0.5787970422535212
C -1.8438954929577462 -2.213429295774647 -1.4808029577464787
C 0.5129345070422537 -1.5763292957746469 -0.13022295774647863
H -0.6401854929577462 -1.7032692957746463 1.6609470422535213
C -0.6547954929577462 -1.9962392957746466 -2.1933129577464787
H -2.7578654929577464 -2.4351492957746466 -2.026182957746479
C 0.5308845070422537 -1.645769295774647 -1.5261029577464789
H 1.4044045070422537 -1.2610992957746463 0.41551704225352126
H -0.6795654929577464 -2.0467992957746466 -3.2793129577464786
C 1.7843245070422535 -1.2521692957746469 -2.2771629577464787
H 1.4981245070422535 -0.9384492957746469 -3.290282957746479
H 2.241984507042254 -0.38631929577464685 -1.8135029577464787
C 0.9385645070422537 2.0647807042253534 1.9815670422535212
H 1.0508945070422537 1.5807407042253532 2.9609770422535213
H 1.6053245070422537 1.5496207042253536 1.3096170422535214
C 3.9676945070422533 -1.6881692957746468 -3.314052957746479
H 4.795084507042254 -2.398849295774647 -3.4044129577464783
H 3.548404507042253 -1.4816192957746468 -4.303802957746479
H 4.307714507042253 -0.7637192957746466 -2.851282957746479
C 2.344694507042253 -3.565079295774647 -3.101282957746479
H 1.6334345070422536 -4.047909295774646 -2.4251929577464786
H 1.8561845070422536 -3.293109295774647 -4.041792957746479
H 3.1808045070422537 -4.243519295774647 -3.298122957746479
C 3.5156645070422536 -2.648489295774647 -1.1110629577464786
H 3.9311845070422535 -1.748249295774647 -0.6771029577464787
H 2.767184507042254 -3.1044092957746465 -0.45972295774647876
H 4.319224507042254 -3.371819295774647 -1.2863129577464787
C 2.963994507042253 3.381090704225353 2.401027042253521
H 3.3337945070422537 4.369820704225353 2.6912870422535216
H 3.120994507042253 2.671350704225353 3.2183370422535216
H 3.4665445070422534 3.0664207042253535 1.4881370422535212
C 1.2973745070422538 4.282440704225354 0.8488370422535213
H 1.7592145070422538 3.7367207042253527 0.02653704225352116
H 0.23311450704225378 4.4484607042253534 0.6605570422535213
H 1.7921845070422535 5.251370704225354 0.9736770422535213
C 0.7724845070422537 4.194670704225353 3.2772470422535216
H -0.2956954929577462 4.278220704225354 3.057857042253521
H 0.9298945070422537 3.612620704225354 4.190337042253521
H 1.2046345070422537 5.193640704225353 3.3918370422535213
N 2.876084507042253 -2.324759295774647 -2.4576629577464786
N 1.4527845070422536 3.504690704225353 2.1388470422535213
C -3.593905492957746 -3.637819295774647 0.8297870422535213
H -2.8952554929577463 -1.8680692957746468 1.7595270422535212
H -5.022615492957747 -1.2402792957746467 1.1579970422535213
H -4.898275492957747 -1.7933092957746464 -0.48931295774647876
H -3.883675492957746 0.07871070422535364 -1.2758929577464788
H -3.8751654929577466 -4.038529295774646 -0.1505529577464788
H -4.4603554929577465 -3.7321892957746465 1.4932570422535212
H -2.7953554929577464 -4.271929295774647 1.2313670422535212
H -5.648775492957746 1.147700704225353 0.9733970422535213
H -6.189795492957747 0.5254307042253537 -0.5943629577464788
H -5.2178854929577465 2.002970704225354 -0.5139729577464787
C 3.6710445070422537 1.0263707042253536 -0.27764295774647874
O 2.7356545070422538 1.6631507042253526 -0.7327029577464788
O 3.650814507042253 0.3883007042253537 0.7790570422535212
O 4.756604507042254 0.8696707042253538 -0.8334829577464786
O 7.268523201093131 1.7954700676296378 -1.018530160516257
H 6.97882522215485 2.1619604933338556 -0.16957362113027763
H 6.445282951805194 1.678333552561002 -1.5160404348723857
O -3.3642239186258536 -6.393373750010635 -6.735005853842483
H -4.331130387925535 -6.407593181230069 -6.797110960735724
H -3.10564766554094 -5.636549943968222 -7.282105472054782
O -0.6749262954220734 2.71673555335376 -8.051807915358221
H -0.3917423006619867 2.6056049500760388 -8.971821051692073
H -1.5802089801083854 3.0545316164445566 -8.124739560530273
O 4.122105344502561 -10.66687621743802 2.6429721336154604
H 4.288041149909975 -9.876782976436907 3.1788688922436013
H 3.7497456130364153 -10.317218269571434 1.8195345256716728
O 12.377496403773646 4.7723772379093194 -0.06771610426706776
H 12.16011074081846 4.085386439585315 0.5801685100429843
H 12.466078034475183 4.287632573635912 -0.9020648619581895
O -11.339112594191167 -1.982976238067673 2.6257807751795523
H -11.522916790426759 -2.089090161182428 3.5712558989492815
H -11.420548851728539 -1.028912640874573 2.477144532058066
O -3.6247046765517195 -6.552751389177159 8.021330360133643
H -2.8728405071274152 -6.092788448456129 8.423948939932396
H -4.142727272552821 -6.862597015928535 8.779360848910528
O 1.1695593974257577 5.596037038016201 5.347976535295544
H 1.0908141406289644 5.392036451395198 6.29198411052484
H 0.27302950110924495 5.857478835555109 5.0894339356909
O 4.677056941169878 -2.3694552680771817 7.196302664600873
H 4.417937744041733 -2.204223277317041 8.115281983089112
H 4.920192819727407 -3.3074076825782805 7.186702821392931
O 4.974556235639867 4.138377911092504 -5.564127292583407
H 4.668160521474925 3.63185621355593 -4.7969735966619025
H 4.456035807406925 4.956127989517542 -5.5269342953800225
O 1.9618621157271625 -3.4166358056363855 -10.524514488958475
H 1.5063196966225023 -4.179415005631073 -10.911317220789236
H 2.7817826319152306 -3.789926651042255 -10.167658444915416
O 0.42308397311831003 6.700352810161989 -6.61046498738077
H 0.22902545306505218 7.6080893285861455 -6.332394742992903
H 1.0223387270070488 6.8094681697596116 -7.364089245576874
O 11.09482664315838 -2.5272607076689564 5.6139241728291145
H 11.751480077600302 -3.090414643698775 5.177310764572162
H 11.571320927204813 -2.1565611269228784 6.371879951490216
O -4.1060130044305 12.526536038472669 -1.039917243324676
H -5.071288662749849 12.542364746356363 -1.1233421338723018
H -3.8615629430555463 11.631532763639422 -1.3195156156939447
O -9.81877257127652 5.745119904945351 3.95788872880441
H -10.502293190411727 6.348856650488251 4.2854079835029575
H -9.034914408267 6.307197929085615 3.8651707728200466
O 10.791605948488435 -1.588273375509759 -0.8527053991255129
H 10.971007246234525 -1.0843136588032194 -1.660670209747909
H 10.499716880210265 -2.4536466630280818 -1.1765754183761872
O -10.760768651308322 7.591702365169007 -2.2087108718014674
H -11.394975961007614 6.874693105566317 -2.359197305967453
H -10.619127094676433 7.5815571330627485 -1.2501720421235012
O 13.808570734320995 -0.5283585059945284 0.4483357132254495
H 13.574165169580777 -1.3154699261822214 0.962608987204308
H 13.014099200786859 0.024720266033662508 0.49170388860451286
O 10.17909836024546 4.8032172103100805 3.6035284785783976
H 9.450035714552534 5.407024866351028 3.3965228504868628
H 9.758011731856032 4.093075865152707 4.110822540824054
O -0.7801869446293335 12.615133813779597 7.003945073710888
H -0.17087082772655204 13.3058234213457 7.305024951123343
H -0.593738057503276 12.535322929062744 6.056406694820531
O -4.0234302938993975 -8.107836117722684 -12.002297214135245
H -4.711336958026172 -8.087459152229895 -12.684453030373207
H -4.228714572745938 -8.902066425781378 -11.48652737504086
O -7.070774293234202 -2.304921989719264 4.138461241205837
H -6.418993738758271 -2.9493068355421554 4.452972983722485
H -7.337759210982484 -1.8314660154609155 4.9406584977668535
O -10.522204658930189 -2.4177851147047047 6.449499558137315
H -10.776934332552665 -2.607321085877642 7.365008305177843
H -11.290024472066413 -2.699460643597533 5.929813522844468
O 7.914393472674146 -0.7579628107899508 4.5670244156504305
H 8.206545499346246 -0.7026504299645113 3.644768978833272
H 8.024745837238546 0.14456338209566866 4.9020330291075105
C -6.46095322873831 -8.843163162727132 7.244555180377474
O -5.914448770307182 -7.848747645203325 6.863387352875264
O -7.00745768716944 -9.837578680250939 7.625723007879685