146

C -5.3564454929577465 1.0091607042253532 -0.0734429577464788
C -4.079135492957747 0.16955070422535368 -0.19788295774647868
C -4.333545492957747 -1.2789292957746463 0.3017270422535212
C -3.1403854929577464 -2.1745492957746464 0.7330270422535212
C -2.905235492957746 0.902300704225353 0.41966704225352136
C -2.7423854929577463 1.056130704225354 1.8024770422535212
C -1.8861754929577463 1.3499307042253532 -0.4326129577464788
C -1.5304554929577463 1.5279207042253526 2.3254170422535214
H -3.5237954929577464 0.7301007042253529 2.484817042253521
C -0.6776454929577462 1.8010507042253527 0.08546704225352131
H -1.9759254929577463 1.2426607042253535 -1.5115229577464788
C -0.4680254929577463 1.8513207042253539 1.4698070422535212
H -1.3950654929577464 1.5446707042253527 3.404047042253521
H 0.1461845070422536 1.9972507042253538 -0.6030529577464789
C -1.8679654929577463 -2.0866092957746467 -0.08765295774647863
C -0.6628654929577462 -1.814079295774647 0.5787970422535212
C -1.8438954929577462 -2.213429295774647 -1.4808029577464787
C 0.5129345070422537 -1.5763292957746469 -0.13022295774647863
H -0.6401854929577462 -1.7032692957746463 1.6609470422535213
C -0.6547954929577462 -1.9962392957746466 -2.1933129577464787
H -2.7578654929577464 -2.4351492957746466 -2.026182957746479
C 0.5308845070422537 -1.645769295774647 -1.5261029577464789
H 1.4044045070422537 -1.2610992957746463 0.41551704225352126
H -0.6795654929577464 -2.0467992957746466 -3.2793129577464786
C 1.7843245070422535 -1.2521692957746469 -2.2771629577464787
H 1.4981245070422535 -0.9384492957746469 -3.290282957746479
H 2.241984507042254 -0.38631929577464685 -1.8135029577464787
C 0.9385645070422537 2.0647807042253534 1.9815670422535212
H 1.0508945070422537 1.5807407042253532 2.9609770422535213
H 1.6053245070422537 1.5496207042253536 1.3096170422535214
C 3.9676945070422533 -1.6881692957746468 -3.314052957746479
H 4.795084507042254 -2.398849295774647 -3.4044129577464783
H 3.548404507042253 -1.4816192957746468 -4.303802957746479
H 4.307714507042253 -0.7637192957746466 -2.851282957746479
C 2.344694507042253 -3.565079295774647 -3.101282957746479
H 1.6334345070422536 -4.047909295774646 -2.4251929577464786
H 1.8561845070422536 -3.293109295774647 -4.041792957746479
H 3.1808045070422537 -4.243519295774647 -3.298122957746479
C 3.5156645070422536 -2.648489295774647 -1.1110629577464786
H 3.9311845070422535 -1.748249295774647 -0.6771029577464787
H 2.767184507042254 -3.1044092957746465 -0.45972295774647876
H 4.319224507042254 -3.371819295774647 -1.2863129577464787
C 2.963994507042253 3.381090704225353 2.401027042253521
H 3.3337945070422537 4.369820704225353 2.6912870422535216
H 3.120994507042253 2.671350704225353 3.2183370422535216
H 3.4665445070422534 3.0664207042253535 1.4881370422535212
C 1.2973745070422538 4.282440704225354 0.8488370422535213
H 1.7592145070422538 3.7367207042253527 0.02653704225352116
H 0.23311450704225378 4.4484607042253534 0.6605570422535213
H 1.7921845070422535 5.251370704225354 0.9736770422535213
C 0.7724845070422537 4.194670704225353 3.2772470422535216
H -0.2956954929577462 4.278220704225354 3.057857042253521
H 0.9298945070422537 3.612620704225354 4.190337042253521
H 1.2046345070422537 5.193640704225353 3.3918370422535213
N 2.876084507042253 -2.324759295774647 -2.4576629577464786
N 1.4527845070422536 3.504690704225353 2.1388470422535213
C -3.593905492957746 -3.637819295774647 0.8297870422535213
H -2.8952554929577463 -1.8680692957746468 1.7595270422535212
H -5.022615492957747 -1.2402792957746467 1.1579970422535213
H -4.898275492957747 -1.7933092957746464 -0.48931295774647876
H -3.883675492957746 0.07871070422535364 -1.2758929577464788
H -3.8751654929577466 -4.038529295774646 -0.1505529577464788
H -4.4603554929577465 -3.7321892957746465 1.4932570422535212
H -2.7953554929577464 -4.271929295774647 1.2313670422535212
H -5.648775492957746 1.147700704225353 0.9733970422535213
H -6.189795492957747 0.5254307042253537 -0.5943629577464788
H -5.2178854929577465 2.002970704225354 -0.5139729577464787
C 3.6710445070422537 1.0263707042253536 -0.27764295774647874
O 2.7356545070422538 1.6631507042253526 -0.7327029577464788
O 3.650814507042253 0.3883007042253537 0.7790570422535212
O 4.756604507042254 0.8696707042253538 -0.8334829577464786
O -6.997554456276035 2.0072388062467903 -4.379726107958671
H -6.431609649263466 1.7686732834428534 -3.6302193877454414
H -7.794727426580846 1.4716323511535454 -4.2508737700759145
O -6.492907425617345 -1.2367876657913044 11.571802624135717
H -7.004777581166337 -1.3559988970345778 10.757711116316287
H -6.082559345127892 -2.102164631352654 11.71910878359435
O -10.021855350820324 2.7103277595189543 4.688516732701817
H -9.231450892463823 3.248447374760404 4.531496260143104
H -9.672574835449227 1.8182243785327952 4.833832332398352
O -0.9330434224067838 0.5136361328627398 -5.566341283090386
H -0.07514397617460959 0.06497311824741855 -5.607297312815227
H -0.966340924563548 1.0302491128398732 -6.385465357678154
O -5.802654874718673 4.931333384685209 -9.629078074105417
H -5.825378235880831 5.186897442950564 -8.69465952876268
H -5.464467538302941 5.719955189669643 -10.079263500892116
O -2.300225700087695 8.542484658914333 4.883415777979604
H -2.209701642156217 8.254034468597789 3.9627805410144044
H -1.9308696934856804 7.807939919680755 5.396233592365267
O -8.021113267311465 6.2722569368655705 -1.2365032676601384
H -7.7151128458971705 7.158983504602286 -1.4794993438921198
H -7.26310687302678 5.880831210060213 -0.7769663802197191
O 7.117189033037045 6.013058398972387 -8.0827518471924
H 6.975453866864893 6.096845457299267 -7.127839166143979
H 6.361997318235792 5.487169004227857 -8.386211502980073
O 9.020050634149818 -6.059663004926367 -3.7304392235452135
H 8.865531411066247 -5.660778638951804 -4.5999117240756915
H 8.179105075604262 -5.938437202221775 -3.2645241919985466
O -7.644451580886727 4.006658415916256 6.741767330342722
H -8.31695128904482 3.7531522607598617 7.391725889579467
H -6.821479200965186 3.644556509760095 7.103099055692641
O 1.4955637894330525 -9.918342163491236 -9.132820265587778
H 1.7178339453856308 -9.9431908252 -10.075659530088416
H 1.607021830282021 -8.986762371582286 -8.890543273826317
O 4.2490676032718016 -6.23606816181404 -1.6198154401135259
H 4.32057731927095 -6.327413609482408 -0.6577812792813921
H 4.574755419333757 -7.082851005927957 -1.9601802527530499
O -3.9070008381651338 -9.502610240131261 -5.109557751185142
H -4.070688995022823 -9.573470056243313 -6.062003251287431
H -4.404341112530016 -10.243023593510207 -4.730872311891778
O -2.579343868972722 -0.8629244412335246 9.313543485813575
H -1.746545267085105 -1.3365759605704493 9.458691974692567
H -2.326500992707376 -0.10936978398153707 8.759298230754315
O -8.831434134673817 -4.151891378084821 7.371195708009633
H -9.391650351013913 -4.547174819818435 8.055941024562303
H -9.13369185178033 -4.570334209517369 6.55112997066154
O 4.050706871623703 -6.052798339313723 3.757425282863556
H 3.620930767447316 -5.381147161212641 4.308010927549646
H 4.961764140834468 -6.077325448194409 4.086568135509905
O -5.127686056128983 0.20964441229926667 -10.43994740401767
H -5.261311604068804 0.29292573574736336 -11.396072809496738
H -5.658523450902676 0.928855415112008 -10.065903104444784
O 5.000815910719341 2.4195723152459094 -9.314060193195116
H 5.388008611447544 2.03858532962473 -8.51162758780692
H 5.765792756853957 2.595869312629721 -9.882119818491077
O 8.475419810964214 8.431869776131709 5.391238657844308
H 8.515760083236337 8.650258273198968 6.334449389166697
H 8.166849740208491 7.513429214524525 5.376630765166533
O 4.00582005915386 5.757160938878035 -0.4422929743153041
H 3.6809508941298246 5.006784508243835 0.07767105796507001
H 4.890074510412817 5.480178365350882 -0.7257302049167142
O -6.645530248815744 5.169554270315558 -2.8152885819379567
H -5.9799058810860135 5.6598870319899595 -3.3207441594253866
H -6.181521639746849 4.366542749669751 -2.5345209685633776
O 11.415412445025918 -5.2327073485098 -0.7771979241667006
H 11.800676545924958 -5.518331470515932 0.0647983884063894
H 10.49612181988438 -5.022254920224592 -0.5545401907377068
O -6.392562774061588 -4.053690991994082 -1.50993597162842
H -6.730442840062089 -4.074852277147099 -0.601995104660658
H -6.711877822340816 -3.207962657826127 -1.858853481977111
O 13.445910046383718 -5.974609128757236 -5.050884059554988
H 12.850644990945657 -5.478539209141021 -5.63272725623798
H 13.805622628463187 -5.300794379366519 -4.4546102247297075
C -1.8158971799055994 -6.725613760905338 -3.2663837816155894
O -2.1968739676706983 -6.837690436352297 -4.395593134793707
O -1.4349203921404996 -6.613537085458377 -2.1371744284374716