146

C -5.3564454929577465 1.0091607042253532 -0.0734429577464788
C -4.079135492957747 0.16955070422535368 -0.19788295774647868
C -4.333545492957747 -1.2789292957746463 0.3017270422535212
C -3.1403854929577464 -2.1745492957746464 0.7330270422535212
C -2.905235492957746 0.902300704225353 0.41966704225352136
C -2.7423854929577463 1.056130704225354 1.8024770422535212
C -1.8861754929577463 1.3499307042253532 -0.4326129577464788
C -1.5304554929577463 1.5279207042253526 2.3254170422535214
H -3.5237954929577464 0.7301007042253529 2.484817042253521
C -0.6776454929577462 1.8010507042253527 0.08546704225352131
H -1.9759254929577463 1.2426607042253535 -1.5115229577464788
C -0.4680254929577463 1.8513207042253539 1.4698070422535212
H -1.3950654929577464 1.5446707042253527 3.404047042253521
H 0.1461845070422536 1.9972507042253538 -0.6030529577464789
C -1.8679654929577463 -2.0866092957746467 -0.08765295774647863
C -0.6628654929577462 -1.814079295774647 0.5787970422535212
C -1.8438954929577462 -2.213429295774647 -1.4808029577464787
C 0.5129345070422537 -1.5763292957746469 -0.13022295774647863
H -0.6401854929577462 -1.7032692957746463 1.6609470422535213
C -0.6547954929577462 -1.9962392957746466 -2.1933129577464787
H -2.7578654929577464 -2.4351492957746466 -2.026182957746479
C 0.5308845070422537 -1.645769295774647 -1.5261029577464789
H 1.4044045070422537 -1.2610992957746463 0.41551704225352126
H -0.6795654929577464 -2.0467992957746466 -3.2793129577464786
C 1.7843245070422535 -1.2521692957746469 -2.2771629577464787
H 1.4981245070422535 -0.9384492957746469 -3.290282957746479
H 2.241984507042254 -0.38631929577464685 -1.8135029577464787
C 0.9385645070422537 2.0647807042253534 1.9815670422535212
H 1.0508945070422537 1.5807407042253532 2.9609770422535213
H 1.6053245070422537 1.5496207042253536 1.3096170422535214
C 3.9676945070422533 -1.6881692957746468 -3.314052957746479
H 4.795084507042254 -2.398849295774647 -3.4044129577464783
H 3.548404507042253 -1.4816192957746468 -4.303802957746479
H 4.307714507042253 -0.7637192957746466 -2.851282957746479
C 2.344694507042253 -3.565079295774647 -3.101282957746479
H 1.6334345070422536 -4.047909295774646 -2.4251929577464786
H 1.8561845070422536 -3.293109295774647 -4.041792957746479
H 3.1808045070422537 -4.243519295774647 -3.298122957746479
C 3.5156645070422536 -2.648489295774647 -1.1110629577464786
H 3.9311845070422535 -1.748249295774647 -0.6771029577464787
H 2.767184507042254 -3.1044092957746465 -0.45972295774647876
H 4.319224507042254 -3.371819295774647 -1.2863129577464787
C 2.963994507042253 3.381090704225353 2.401027042253521
H 3.3337945070422537 4.369820704225353 2.6912870422535216
H 3.120994507042253 2.671350704225353 3.2183370422535216
H 3.4665445070422534 3.0664207042253535 1.4881370422535212
C 1.2973745070422538 4.282440704225354 0.8488370422535213
H 1.7592145070422538 3.7367207042253527 0.02653704225352116
H 0.23311450704225378 4.4484607042253534 0.6605570422535213
H 1.7921845070422535 5.251370704225354 0.9736770422535213
C 0.7724845070422537 4.194670704225353 3.2772470422535216
H -0.2956954929577462 4.278220704225354 3.057857042253521
H 0.9298945070422537 3.612620704225354 4.190337042253521
H 1.2046345070422537 5.193640704225353 3.3918370422535213
N 2.876084507042253 -2.324759295774647 -2.4576629577464786
N 1.4527845070422536 3.504690704225353 2.1388470422535213
C -3.593905492957746 -3.637819295774647 0.8297870422535213
H -2.8952554929577463 -1.8680692957746468 1.7595270422535212
H -5.022615492957747 -1.2402792957746467 1.1579970422535213
H -4.898275492957747 -1.7933092957746464 -0.48931295774647876
H -3.883675492957746 0.07871070422535364 -1.2758929577464788
H -3.8751654929577466 -4.038529295774646 -0.1505529577464788
H -4.4603554929577465 -3.7321892957746465 1.4932570422535212
H -2.7953554929577464 -4.271929295774647 1.2313670422535212
H -5.648775492957746 1.147700704225353 0.9733970422535213
H -6.189795492957747 0.5254307042253537 -0.5943629577464788
H -5.2178854929577465 2.002970704225354 -0.5139729577464787
C 3.6710445070422537 1.0263707042253536 -0.27764295774647874
O 2.7356545070422538 1.6631507042253526 -0.7327029577464788
O 3.650814507042253 0.3883007042253537 0.7790570422535212
O 4.756604507042254 0.8696707042253538 -0.8334829577464786
O -2.804610736870518 8.023545505055365 -5.11776891742591
H -3.746726804986857 7.93807788238524 -4.907816645296911
H -2.4448504327448863 8.53312444492834 -4.37624091936153
O -7.22469302210501 -1.5537786761819148 -8.106879692610498
H -7.934256099265522 -1.7398776517255512 -8.740010617247826
H -7.426572384194975 -2.128677444274308 -7.3534222791437545
O 7.860809113100657 -2.744238248180886 -1.7325350130665904
H 8.334802010407127 -2.564808961572614 -0.9066396072734206
H 7.370245633496971 -3.559374230294414 -1.5485166785372912
O 1.3421164931042593 -0.6941355673357783 4.932926988881597
H 0.4015363992706182 -0.8852201797997687 4.799648652819855
H 1.4308477347973791 -0.614713568365906 5.8945822582620675
O -8.479059805497116 -6.302213008289702 -6.847409000313961
H -8.615828393429084 -7.066740504981991 -7.426856510496309
H -9.357547606946603 -6.129239636011036 -6.476867046566493
O -13.492554024137288 -7.2213245589338975 3.1878712007409895
H -13.529785703129157 -6.283347594779765 2.947495715935146
H -13.301383118823297 -7.67010264934122 2.350605499286675
O -8.799858208180911 6.813281054684596 11.126757956449232
H -8.598899200741013 7.138167458964495 12.01728120631015
H -8.242572788254265 7.355505826221398 10.548495730319042
O 6.969215448222274 -8.122411719910177 6.046080428710506
H 7.047557991187832 -8.477634456156242 6.944215502357867
H 7.836118103074752 -7.724580336290364 5.875282532011309
O -4.617475650711288 -0.8800390217453367 4.753095289592463
H -4.76909518617819 -1.3247165572494062 3.9056044266429972
H -5.149433396615562 -0.07240986178658093 4.692119549689131
O -9.733322575536477 7.523156677324651 2.6866702178058066
H -9.824408892599216 8.331795700936022 3.212762956053348
H -9.239586004027887 6.92224896738671 3.264680655766994
O 3.927449088380918 5.501339237773141 -5.912743977456556
H 4.496409773642402 6.20870384429481 -5.573795000518686
H 4.346148741731931 5.2441158663092065 -6.7479018557984105
O -1.5306623021204189 -1.3643905249800652 11.38676430889105
H -1.3797530725624425 -1.2664619545482667 12.338921730973873
H -0.650223102108011 -1.552357420220634 11.028355037700793
O 3.3535661647174426 -9.940972112921504 1.93679331241647
H 3.282232559653833 -9.762399500407913 0.9870614051138349
H 4.301960508047307 -9.862020279004204 2.119212395192943
O -0.7622222427910947 -8.615621364875045 6.877304990527925
H -0.1721967388447188 -7.908587203575257 7.178867515301698
H -0.5112900583163307 -9.377609962211176 7.42078301273714
O -8.810847607272244 4.548167360093639 -0.44926465513716685
H -9.764180270158887 4.375511664292072 -0.43153892579413844
H -8.526653484679768 4.204268574169638 -1.309456069895469
O -2.3766255078359997 -1.766992833371721 15.593881068712996
H -2.845897419386545 -2.2876904936269487 14.924833105907318
H -2.085718137395382 -0.9770143674159719 15.11401768247736
O -8.96574854386164 6.922789922307337 0.04102367193864187
H -8.95730483531896 7.346895185059525 0.9122474014088309
H -9.574083829584499 6.176442731159026 0.1499089083553229
O -2.2642996891926916 10.954230267632902 -10.31996055450706
H -2.3652333630398044 10.949731028080729 -11.283682250447946
H -2.465196997469456 10.04281878463484 -10.059324170848864
O 9.116036383098738 3.594175151167177 1.7441268519454016
H 8.915498499765283 3.6271602161428556 0.7966755868469326
H 8.246111303052624 3.6346237046059042 2.169045919452942
O 1.17790964216482 -5.401099824908283 2.3701876953395473
H 1.393788113974984 -4.597056224483394 2.866048291600926
H 2.0358701914701367 -5.713346477418524 2.045583831943148
O -4.046474085393807 5.689305734697649 -3.7818135973926608
H -4.916932478867243 6.1148347676017965 -3.767864250192653
H -3.42462856942695 6.4248896418001324 -3.6760477513753425
O 0.1799967237280874 1.4363681799891261 -5.392423583610513
H 0.17513880240998492 1.614303747488941 -4.439909703754168
H -0.6999734719101117 1.715241555905326 -5.687116710937179
O 7.025513839335226 -4.832522980904142 1.7929458666222842
H 7.963342904437919 -5.03900615265743 1.9225942423595501
H 6.5750333608969065 -5.35095935116907 2.4765049444147658
O -3.847523867414784 -13.996846747657985 -0.6893906651410191
H -4.5195361874207265 -14.420115768062734 -0.13422390188349453
H -3.705533866926675 -13.135313372648522 -0.2691990091003573
C 0.4304930948712147 9.15918398078802 -8.664781604710177
O 0.6389610321194947 9.03216565241373 -7.492934464210851
O 0.22202515762293507 9.286202309162313 -9.836628745209504