146

C -5.3564454929577465 1.0091607042253532 -0.0734429577464788
C -4.079135492957747 0.16955070422535368 -0.19788295774647868
C -4.333545492957747 -1.2789292957746463 0.3017270422535212
C -3.1403854929577464 -2.1745492957746464 0.7330270422535212
C -2.905235492957746 0.902300704225353 0.41966704225352136
C -2.7423854929577463 1.056130704225354 1.8024770422535212
C -1.8861754929577463 1.3499307042253532 -0.4326129577464788
C -1.5304554929577463 1.5279207042253526 2.3254170422535214
H -3.5237954929577464 0.7301007042253529 2.484817042253521
C -0.6776454929577462 1.8010507042253527 0.08546704225352131
H -1.9759254929577463 1.2426607042253535 -1.5115229577464788
C -0.4680254929577463 1.8513207042253539 1.4698070422535212
H -1.3950654929577464 1.5446707042253527 3.404047042253521
H 0.1461845070422536 1.9972507042253538 -0.6030529577464789
C -1.8679654929577463 -2.0866092957746467 -0.08765295774647863
C -0.6628654929577462 -1.814079295774647 0.5787970422535212
C -1.8438954929577462 -2.213429295774647 -1.4808029577464787
C 0.5129345070422537 -1.5763292957746469 -0.13022295774647863
H -0.6401854929577462 -1.7032692957746463 1.6609470422535213
C -0.6547954929577462 -1.9962392957746466 -2.1933129577464787
H -2.7578654929577464 -2.4351492957746466 -2.026182957746479
C 0.5308845070422537 -1.645769295774647 -1.5261029577464789
H 1.4044045070422537 -1.2610992957746463 0.41551704225352126
H -0.6795654929577464 -2.0467992957746466 -3.2793129577464786
C 1.7843245070422535 -1.2521692957746469 -2.2771629577464787
H 1.4981245070422535 -0.9384492957746469 -3.290282957746479
H 2.241984507042254 -0.38631929577464685 -1.8135029577464787
C 0.9385645070422537 2.0647807042253534 1.9815670422535212
H 1.0508945070422537 1.5807407042253532 2.9609770422535213
H 1.6053245070422537 1.5496207042253536 1.3096170422535214
C 3.9676945070422533 -1.6881692957746468 -3.314052957746479
H 4.795084507042254 -2.398849295774647 -3.4044129577464783
H 3.548404507042253 -1.4816192957746468 -4.303802957746479
H 4.307714507042253 -0.7637192957746466 -2.851282957746479
C 2.344694507042253 -3.565079295774647 -3.101282957746479
H 1.6334345070422536 -4.047909295774646 -2.4251929577464786
H 1.8561845070422536 -3.293109295774647 -4.041792957746479
H 3.1808045070422537 -4.243519295774647 -3.298122957746479
C 3.5156645070422536 -2.648489295774647 -1.1110629577464786
H 3.9311845070422535 -1.748249295774647 -0.6771029577464787
H 2.767184507042254 -3.1044092957746465 -0.45972295774647876
H 4.319224507042254 -3.371819295774647 -1.2863129577464787
C 2.963994507042253 3.381090704225353 2.401027042253521
H 3.3337945070422537 4.369820704225353 2.6912870422535216
H 3.120994507042253 2.671350704225353 3.2183370422535216
H 3.4665445070422534 3.0664207042253535 1.4881370422535212
C 1.2973745070422538 4.282440704225354 0.8488370422535213
H 1.7592145070422538 3.7367207042253527 0.02653704225352116
H 0.23311450704225378 4.4484607042253534 0.6605570422535213
H 1.7921845070422535 5.251370704225354 0.9736770422535213
C 0.7724845070422537 4.194670704225353 3.2772470422535216
H -0.2956954929577462 4.278220704225354 3.057857042253521
H 0.9298945070422537 3.612620704225354 4.190337042253521
H 1.2046345070422537 5.193640704225353 3.3918370422535213
N 2.876084507042253 -2.324759295774647 -2.4576629577464786
N 1.4527845070422536 3.504690704225353 2.1388470422535213
C -3.593905492957746 -3.637819295774647 0.8297870422535213
H -2.8952554929577463 -1.8680692957746468 1.7595270422535212
H -5.022615492957747 -1.2402792957746467 1.1579970422535213
H -4.898275492957747 -1.7933092957746464 -0.48931295774647876
H -3.883675492957746 0.07871070422535364 -1.2758929577464788
H -3.8751654929577466 -4.038529295774646 -0.1505529577464788
H -4.4603554929577465 -3.7321892957746465 1.4932570422535212
H -2.7953554929577464 -4.271929295774647 1.2313670422535212
H -5.648775492957746 1.147700704225353 0.9733970422535213
H -6.189795492957747 0.5254307042253537 -0.5943629577464788
H -5.2178854929577465 2.002970704225354 -0.5139729577464787
C 3.6710445070422537 1.0263707042253536 -0.27764295774647874
O 2.7356545070422538 1.6631507042253526 -0.7327029577464788
O 3.650814507042253 0.3883007042253537 0.7790570422535212
O 4.756604507042254 0.8696707042253538 -0.8334829577464786
O 4.400340934310406 -6.981690974606619 -8.303053458002346
H 4.192588731175626 -6.324950853830422 -8.984594940786417
H 3.8241989204964093 -7.730956481266453 -8.516650098303952
O -4.62674552043326 -8.408223057764351 6.661977051746531
H -4.725540673639937 -8.945543860165433 5.861668842423443
H -3.679086511196905 -8.208582423943893 6.694349321375565
O 0.8044346455465761 2.4062046291230543 -9.83690796349957
H -0.058257920303095734 2.8384224073920215 -9.747932203452528
H 1.0496760216881518 2.183498011663513 -8.926292581316776
O 5.980543182891854 10.26707836251082 0.9275895787719155
H 6.160910646794454 10.732309230939919 1.7582490601034975
H 6.619647706210683 9.538729361079806 0.9237056776584196
O -3.412999155548227 5.978111616843124 -2.485066074008161
H -3.4007149988106167 6.01200934326715 -3.45339835196678
H -2.6153272180457097 5.476866645897277 -2.2582734296775375
O 5.689469396638585 -11.338532733824959 -3.3277979461522973
H 5.4688772677847854 -12.24836265304941 -3.0777659728533218
H 4.878192732293938 -10.841826188466603 -3.1432045389352736
O 5.382924309137755 5.740530509880571 12.659141470853685
H 5.904521119419089 5.262368430971739 11.997125496199052
H 4.4964616393938535 5.357249912386838 12.58013600879341
O -1.412938766885661 4.123290453521717 5.364483202676324
H -1.6819164972593441 3.581349369864778 4.607569601723238
H -1.2253150829848563 3.4760987356752637 6.060832380812155
O 8.821886399889676 -0.9674132445913763 -2.587831828364817
H 9.080628585055814 -0.14233584980868086 -3.025172806474635
H 8.043166656228168 -1.2611459312840594 -3.0840964895085
O 2.1453118927148376 1.2477607647730824 -3.1611978057591346
H 1.4235081785404595 0.6050089283042379 -3.2307451408626586
H 1.8483630957612225 1.8593871903713335 -2.4707657151103097
O 4.454422513110592 7.901606312091095 -0.5627245366956164
H 4.461826229697985 7.762776239437455 0.3962534363609498
H 4.684463662181811 8.837271786041606 -0.6655502868312684
O -3.844521295244018 -1.2147722101790976 -6.220613566225808
H -2.8972307871418153 -1.1028665256055168 -6.3911573081795625
H -4.1191631782006795 -1.8898523618357255 -6.859206213588179
O 3.9764592644277217 -2.537216775152137 -6.674003141486813
H 3.089637214028261 -2.7842870533792072 -6.976443690094461
H 4.433960452178994 -3.3853866471236342 -6.572699263051547
O 9.821049890575825 -9.550026715846768 3.807545986595414
H 9.875009666768845 -9.39812219106524 2.852045743369857
H 9.008493561035444 -9.092926969635444 4.071693630229436
O 11.101703424648196 5.075685746811688 -7.024829467016184
H 11.240032703865499 5.4360889033751 -6.136042691602444
H 10.694359101105508 5.806862023415473 -7.5131058220748494
O -4.52382230632532 6.934147207597839 12.575226819558523
H -4.205707898957773 7.688849264280722 13.093102660242197
H -4.596466947438989 7.282671056373541 11.673996645156866
O -10.948275580619123 8.13048855853679 2.9824996007503315
H -11.887192411113752 8.025219941269029 3.1977228813973206
H -10.774069729918484 9.069252720838712 3.1478359653506045
O 5.113560929478172 2.121769775232844 3.0751415942131577
H 5.28567245692818 1.8274849620351854 3.9821925452297178
H 5.359413296122932 3.0590338286286958 3.08253431544071
O -7.214690070478685 1.7334666795626157 -7.773674915537874
H -6.985480597053821 2.6726096160992023 -7.7070346953571525
H -6.853353284537181 1.3461999557999706 -6.962242751958188
O -4.378652270568615 -1.252541024764575 -8.388129172613437
H -4.247952616507222 -0.9014489512999886 -9.28178420296831
H -3.4787221341971453 -1.4025195663444194 -8.061641606210047
O 2.305577312307948 11.44316270836688 5.545599501782366
H 2.2503166778169206 12.393341492180038 5.727461806746861
H 2.4897635535227676 11.04942332961499 6.411628759063683
O 9.41288141423235 -6.036538599413132 0.5041697713075033
H 8.969962296882763 -5.426390569061701 1.1128645991519117
H 10.350486207504627 -5.804242020420139 0.5809649229839025
O -10.069848518884957 -2.031332471193907 -9.950680039563398
H -9.874398734717111 -2.0302542834482793 -10.899766745971158
H -9.610837408242162 -2.8172369672981485 -9.618076871193635
O 4.652347547412858 -6.191484427674707 -5.502530760650094
H 4.630953989350374 -6.650698031029236 -6.355544558350681
H 3.838090634279945 -5.666189030266766 -5.499013776531287
C -4.010805868910528 -5.649047317845536 -2.2475688184267373
O -3.1549748261089716 -5.582420478609103 -1.4133432207790964
O -4.866636911712084 -5.715674157081967 -3.081794416074378