146

C -5.3564454929577465 1.0091607042253532 -0.0734429577464788
C -4.079135492957747 0.16955070422535368 -0.19788295774647868
C -4.333545492957747 -1.2789292957746463 0.3017270422535212
C -3.1403854929577464 -2.1745492957746464 0.7330270422535212
C -2.905235492957746 0.902300704225353 0.41966704225352136
C -2.7423854929577463 1.056130704225354 1.8024770422535212
C -1.8861754929577463 1.3499307042253532 -0.4326129577464788
C -1.5304554929577463 1.5279207042253526 2.3254170422535214
H -3.5237954929577464 0.7301007042253529 2.484817042253521
C -0.6776454929577462 1.8010507042253527 0.08546704225352131
H -1.9759254929577463 1.2426607042253535 -1.5115229577464788
C -0.4680254929577463 1.8513207042253539 1.4698070422535212
H -1.3950654929577464 1.5446707042253527 3.404047042253521
H 0.1461845070422536 1.9972507042253538 -0.6030529577464789
C -1.8679654929577463 -2.0866092957746467 -0.08765295774647863
C -0.6628654929577462 -1.814079295774647 0.5787970422535212
C -1.8438954929577462 -2.213429295774647 -1.4808029577464787
C 0.5129345070422537 -1.5763292957746469 -0.13022295774647863
H -0.6401854929577462 -1.7032692957746463 1.6609470422535213
C -0.6547954929577462 -1.9962392957746466 -2.1933129577464787
H -2.7578654929577464 -2.4351492957746466 -2.026182957746479
C 0.5308845070422537 -1.645769295774647 -1.5261029577464789
H 1.4044045070422537 -1.2610992957746463 0.41551704225352126
H -0.6795654929577464 -2.0467992957746466 -3.2793129577464786
C 1.7843245070422535 -1.2521692957746469 -2.2771629577464787
H 1.4981245070422535 -0.9384492957746469 -3.290282957746479
H 2.241984507042254 -0.38631929577464685 -1.8135029577464787
C 0.9385645070422537 2.0647807042253534 1.9815670422535212
H 1.0508945070422537 1.5807407042253532 2.9609770422535213
H 1.6053245070422537 1.5496207042253536 1.3096170422535214
C 3.9676945070422533 -1.6881692957746468 -3.314052957746479
H 4.795084507042254 -2.398849295774647 -3.4044129577464783
H 3.548404507042253 -1.4816192957746468 -4.303802957746479
H 4.307714507042253 -0.7637192957746466 -2.851282957746479
C 2.344694507042253 -3.565079295774647 -3.101282957746479
H 1.6334345070422536 -4.047909295774646 -2.4251929577464786
H 1.8561845070422536 -3.293109295774647 -4.041792957746479
H 3.1808045070422537 -4.243519295774647 -3.298122957746479
C 3.5156645070422536 -2.648489295774647 -1.1110629577464786
H 3.9311845070422535 -1.748249295774647 -0.6771029577464787
H 2.767184507042254 -3.1044092957746465 -0.45972295774647876
H 4.319224507042254 -3.371819295774647 -1.2863129577464787
C 2.963994507042253 3.381090704225353 2.401027042253521
H 3.3337945070422537 4.369820704225353 2.6912870422535216
H 3.120994507042253 2.671350704225353 3.2183370422535216
H 3.4665445070422534 3.0664207042253535 1.4881370422535212
C 1.2973745070422538 4.282440704225354 0.8488370422535213
H 1.7592145070422538 3.7367207042253527 0.02653704225352116
H 0.23311450704225378 4.4484607042253534 0.6605570422535213
H 1.7921845070422535 5.251370704225354 0.9736770422535213
C 0.7724845070422537 4.194670704225353 3.2772470422535216
H -0.2956954929577462 4.278220704225354 3.057857042253521
H 0.9298945070422537 3.612620704225354 4.190337042253521
H 1.2046345070422537 5.193640704225353 3.3918370422535213
N 2.876084507042253 -2.324759295774647 -2.4576629577464786
N 1.4527845070422536 3.504690704225353 2.1388470422535213
C -3.593905492957746 -3.637819295774647 0.8297870422535213
H -2.8952554929577463 -1.8680692957746468 1.7595270422535212
H -5.022615492957747 -1.2402792957746467 1.1579970422535213
H -4.898275492957747 -1.7933092957746464 -0.48931295774647876
H -3.883675492957746 0.07871070422535364 -1.2758929577464788
H -3.8751654929577466 -4.038529295774646 -0.1505529577464788
H -4.4603554929577465 -3.7321892957746465 1.4932570422535212
H -2.7953554929577464 -4.271929295774647 1.2313670422535212
H -5.648775492957746 1.147700704225353 0.9733970422535213
H -6.189795492957747 0.5254307042253537 -0.5943629577464788
H -5.2178854929577465 2.002970704225354 -0.5139729577464787
C 3.6710445070422537 1.0263707042253536 -0.27764295774647874
O 2.7356545070422538 1.6631507042253526 -0.7327029577464788
O 3.650814507042253 0.3883007042253537 0.7790570422535212
O 4.756604507042254 0.8696707042253538 -0.8334829577464786
O 4.7024949445725825 -7.0795949901381015 7.140273421698085
H 4.330411816149289 -6.262773636549983 7.505409531614933
H 3.95836368111555 -7.7002009414398795 7.149153751346198
O 12.475186928667478 -2.47105333304947 -5.740365683233494
H 12.537152133448917 -2.6572967904166407 -6.689281403876966
H 12.280601671773644 -3.333926478500103 -5.344703634308288
O -6.238012587085524 9.800318539995526 2.1505370437433964
H -5.3607458764661295 9.525309823230112 2.4567080434185273
H -6.13355360634336 10.744311838413122 1.9583732641568732
O -4.824925458467129 -0.25383379693835284 7.793879030587047
H -4.691298972371931 -1.0552935315372998 7.265888866918787
H -5.17584635392474 -0.5833706669395173 8.634843905442747
O 5.181140009017879 0.31724814774971344 4.3726488145428375
H 5.553812751643171 0.44259701231741766 5.2582954968918045
H 5.5362482298533795 -0.5382998946727645 4.08822370506389
O -2.146323260346795 10.760174810341256 6.535278555243112
H -2.3393875117391287 11.694907120176335 6.702518086110358
H -1.1841169353278196 10.736319154940883 6.423243560268787
O -1.4660561917830188 5.770718322414567 -8.497562589188947
H -0.6193809615461534 6.137604553443698 -8.79337148845432
H -1.2134734709084718 5.023925572251364 -7.934122706220683
O -8.277077437244134 -8.926456997859262 5.635280608363973
H -9.212775782681051 -9.104863798358448 5.813064119360531
H -8.266512336179686 -8.629784681212818 4.712872965575206
O -1.963148203566984 6.714354049180823 4.2526563554031505
H -1.528283091831247 6.480191704858451 3.418973149385111
H -2.8935749548162892 6.48903038308001 4.102665521168011
O -8.054522959517765 -1.7104278267401432 1.4324815575068874
H -7.803276606596792 -1.8411360211866317 0.5057895941509676
H -7.938676520097106 -0.7589060023208833 1.5744243784856093
O 5.365231142560813 -6.1462276976504135 4.151764988370795
H 6.2986497091044 -5.890138428341082 4.105771264056202
H 5.378012004184617 -6.994292367159536 4.620363868231315
O -1.9674597084226657 -9.22879344837277 8.920743908001489
H -1.7451309203200642 -9.479256474421414 9.830032387783008
H -2.753064506675973 -9.75840412570686 8.717520937559895
O -1.4478593142943628 6.387680879123296 -10.481108817311249
H -1.984471512130889 6.611464528043745 -9.705908466105893
H -1.9465002805032716 5.6786062323009645 -10.914158787120773
O -9.903524400750953 -9.398882080637819 3.2189997568719857
H -9.732236156580893 -10.292476571337371 3.55234129418851
H -10.05816011359428 -9.528272352268313 2.271208694337198
O -3.323015396691008 8.345016513231501 -1.4932125799666474
H -2.5562291069884053 8.91924595631129 -1.639043610698775
H -2.977164886540078 7.45147655202287 -1.637904344250651
O 0.0693712526782545 -2.2618626710473366 -5.306364069909977
H -0.16471388329526393 -2.8107625145170076 -4.5428979816943755
H 0.7454888521723131 -2.779795759354924 -5.768502849921518
O 7.995575172196672 -10.58568850371698 8.988632310168299
H 7.949914107726896 -10.5942221149196 9.956521560842843
H 7.10321027256273 -10.840616135959811 8.709959145833501
O 6.605237022009218 3.38908914027371 -7.177380222991867
H 6.031731276584112 4.121446074446056 -6.905880982046192
H 5.986463894561467 2.6774643251633625 -7.400252122449138
O 3.5127838062711936 5.204814645647246 -5.386433679366266
H 3.11499447018919 4.759782036776362 -4.623100869878153
H 2.756466182063395 5.593382465139689 -5.851149340031536
O 4.685060062044181 -3.646850702730323 5.114965648907887
H 5.299356012711399 -3.2384541811333243 4.486618513129159
H 4.880651739017164 -4.593792672872761 5.051666791243205
O 1.2061779803846981 10.527757775166343 -1.8584463653583718
H 0.2803071931764697 10.63419093120566 -2.1237812963228544
H 1.4419890966664997 9.644850927106672 -2.1806738616824233
O -4.320074747115765 4.848360981344787 -2.5751934951037967
H -3.9951900261694266 5.387221652888554 -3.3121103504267166
H -5.283091461002501 4.86227718626572 -2.6818100618999106
O -7.211833003298444 4.541720774274079 12.488610304708812
H -6.945355873922394 4.665470991950215 13.411997103425692
H -6.404351516184882 4.725243506264744 11.985365832199124
O -0.79510613821216 7.519111398806539 -6.29421405567989
H -0.06622888642851832 6.966935883755756 -6.61485015675201
H -0.4062742045357055 8.404133710123439 -6.227078520195923
C -6.703255405146149 -7.353113020525574 0.4989863839661802
O -6.619040885329595 -7.400274720499746 -0.6941196239005196
O -6.7874699249627035 -7.305951320551403 1.69209239183288