146

C -5.3564454929577465 1.0091607042253532 -0.0734429577464788
C -4.079135492957747 0.16955070422535368 -0.19788295774647868
C -4.333545492957747 -1.2789292957746463 0.3017270422535212
C -3.1403854929577464 -2.1745492957746464 0.7330270422535212
C -2.905235492957746 0.902300704225353 0.41966704225352136
C -2.7423854929577463 1.056130704225354 1.8024770422535212
C -1.8861754929577463 1.3499307042253532 -0.4326129577464788
C -1.5304554929577463 1.5279207042253526 2.3254170422535214
H -3.5237954929577464 0.7301007042253529 2.484817042253521
C -0.6776454929577462 1.8010507042253527 0.08546704225352131
H -1.9759254929577463 1.2426607042253535 -1.5115229577464788
C -0.4680254929577463 1.8513207042253539 1.4698070422535212
H -1.3950654929577464 1.5446707042253527 3.404047042253521
H 0.1461845070422536 1.9972507042253538 -0.6030529577464789
C -1.8679654929577463 -2.0866092957746467 -0.08765295774647863
C -0.6628654929577462 -1.814079295774647 0.5787970422535212
C -1.8438954929577462 -2.213429295774647 -1.4808029577464787
C 0.5129345070422537 -1.5763292957746469 -0.13022295774647863
H -0.6401854929577462 -1.7032692957746463 1.6609470422535213
C -0.6547954929577462 -1.9962392957746466 -2.1933129577464787
H -2.7578654929577464 -2.4351492957746466 -2.026182957746479
C 0.5308845070422537 -1.645769295774647 -1.5261029577464789
H 1.4044045070422537 -1.2610992957746463 0.41551704225352126
H -0.6795654929577464 -2.0467992957746466 -3.2793129577464786
C 1.7843245070422535 -1.2521692957746469 -2.2771629577464787
H 1.4981245070422535 -0.9384492957746469 -3.290282957746479
H 2.241984507042254 -0.38631929577464685 -1.8135029577464787
C 0.9385645070422537 2.0647807042253534 1.9815670422535212
H 1.0508945070422537 1.5807407042253532 2.9609770422535213
H 1.6053245070422537 1.5496207042253536 1.3096170422535214
C 3.9676945070422533 -1.6881692957746468 -3.314052957746479
H 4.795084507042254 -2.398849295774647 -3.4044129577464783
H 3.548404507042253 -1.4816192957746468 -4.303802957746479
H 4.307714507042253 -0.7637192957746466 -2.851282957746479
C 2.344694507042253 -3.565079295774647 -3.101282957746479
H 1.6334345070422536 -4.047909295774646 -2.4251929577464786
H 1.8561845070422536 -3.293109295774647 -4.041792957746479
H 3.1808045070422537 -4.243519295774647 -3.298122957746479
C 3.5156645070422536 -2.648489295774647 -1.1110629577464786
H 3.9311845070422535 -1.748249295774647 -0.6771029577464787
H 2.767184507042254 -3.1044092957746465 -0.45972295774647876
H 4.319224507042254 -3.371819295774647 -1.2863129577464787
C 2.963994507042253 3.381090704225353 2.401027042253521
H 3.3337945070422537 4.369820704225353 2.6912870422535216
H 3.120994507042253 2.671350704225353 3.2183370422535216
H 3.4665445070422534 3.0664207042253535 1.4881370422535212
C 1.2973745070422538 4.282440704225354 0.8488370422535213
H 1.7592145070422538 3.7367207042253527 0.02653704225352116
H 0.23311450704225378 4.4484607042253534 0.6605570422535213
H 1.7921845070422535 5.251370704225354 0.9736770422535213
C 0.7724845070422537 4.194670704225353 3.2772470422535216
H -0.2956954929577462 4.278220704225354 3.057857042253521
H 0.9298945070422537 3.612620704225354 4.190337042253521
H 1.2046345070422537 5.193640704225353 3.3918370422535213
N 2.876084507042253 -2.324759295774647 -2.4576629577464786
N 1.4527845070422536 3.504690704225353 2.1388470422535213
C -3.593905492957746 -3.637819295774647 0.8297870422535213
H -2.8952554929577463 -1.8680692957746468 1.7595270422535212
H -5.022615492957747 -1.2402792957746467 1.1579970422535213
H -4.898275492957747 -1.7933092957746464 -0.48931295774647876
H -3.883675492957746 0.07871070422535364 -1.2758929577464788
H -3.8751654929577466 -4.038529295774646 -0.1505529577464788
H -4.4603554929577465 -3.7321892957746465 1.4932570422535212
H -2.7953554929577464 -4.271929295774647 1.2313670422535212
H -5.648775492957746 1.147700704225353 0.9733970422535213
H -6.189795492957747 0.5254307042253537 -0.5943629577464788
H -5.2178854929577465 2.002970704225354 -0.5139729577464787
C 3.6710445070422537 1.0263707042253536 -0.27764295774647874
O 2.7356545070422538 1.6631507042253526 -0.7327029577464788
O 3.650814507042253 0.3883007042253537 0.7790570422535212
O 4.756604507042254 0.8696707042253538 -0.8334829577464786
O -10.59160962820755 3.568079912428476 -6.084299776590552
H -9.75789726855755 3.8683893052501435 -6.476352485865607
H -11.240847630517269 3.6896631413438814 -6.793291651793217
O 8.285186159439643 1.8377896586961104 2.4359652056520886
H 8.332535144955651 2.4057601189510422 1.652297554955438
H 7.3990012864756185 1.4485582300804327 2.389735234772464
O 5.2748185627843505 -12.157494635849709 -1.449728739078775
H 5.307474262549054 -13.051572884980699 -1.8219182695652485
H 4.746302009174768 -12.258592080196985 -0.6438680168648823
O 2.6430045984094166 12.644674097246629 -5.35099637692186
H 2.9224694856757862 11.892665367616914 -5.894457142981287
H 3.4258674555811703 12.852950465658983 -4.819292845316286
O 3.7897247887340972 9.192953195923387 -9.52412235527622
H 3.2934795470125895 9.408121628483588 -8.720125736752017
H 3.2022925774044557 9.470462930853628 -10.243061635334914
O -4.008106167493088 9.697586477510123 1.3968185249958935
H -4.209775730970781 9.696927429125873 0.44903357590567694
H -3.920434821255972 8.758276311129205 1.61811491150599
O 4.597465133998382 5.104248567425287 5.245885763477013
H 4.669239312418255 5.003685616519766 4.284791118232682
H 3.8067816929257403 4.593646144395833 5.476248099612887
O -3.0938784840679237 3.743146116453112 3.7756184322737996
H -3.8021617634437357 3.528119423545588 4.400970872417675
H -2.29896944326761 3.3693882755391864 4.184747553101548
O 7.641133241973716 -8.86372872370987 -5.1673216142863865
H 7.442577078871537 -8.394099308496303 -5.991330727925493
H 8.354503672206908 -9.472577300625481 -5.4109770758643005
O -1.9185217159238386 -9.599870344102644 3.6227151276056024
H -1.917937256912806 -9.834246393956178 2.6824838355488447
H -0.9809311388309343 -9.475633200638232 3.8335491529202983
O 6.604975625293799 -9.938532732012922 4.084125061538562
H 6.160023858682191 -10.350116067684128 4.84015709795433
H 6.071365802015559 -9.151236053747859 3.8986892473230585
O -5.671733474569674 -3.7693473306974177 4.763795865378813
H -4.808878129275546 -3.429895655314624 5.045257354888777
H -5.548859996416025 -4.730235378404309 4.7401693455237215
O -0.27397014502328076 9.578767050144112 6.6162179148419895
H 0.1282625275113931 10.113029507412463 5.914976258350308
H -0.26179986282649015 8.677662055413164 6.2600948785157975
O 5.6580387187146775 -6.083117980971463 -1.3702015131272927
H 6.464184058535812 -6.493578724868273 -1.0228990142817664
H 5.868441387138706 -5.137537585333046 -1.3940840758947552
O 3.9551513632300903 -10.237849472240605 7.948922324846732
H 3.6147050698284318 -11.044160003761553 8.36476725383767
H 3.172185202862425 -9.834180746406608 7.545217611222192
O 1.084496799750705 -9.334650315865948 -11.491507049572059
H 1.7392202067329858 -9.658420880612622 -12.128277996344238
H 0.27533615800724753 -9.814814327452138 -11.723160933914135
O -0.035834288468360675 5.369330149202801 11.73102954649103
H -0.1199261094911348 6.331309420303894 11.65045781131742
H -0.06930902356165713 5.053947382314099 10.815401293999845
O 1.6349618860093433 2.9992830716223087 15.247658194618268
H 1.6329884113938733 2.5219824877164703 16.090953881136993
H 0.708325364251603 2.9789049881583622 14.965007465698186
O 2.3104155378746114 -5.712684866600581 2.9114050912842124
H 2.1265305438589506 -5.115361631646744 2.1708926883765063
H 1.5650857175665815 -5.573737659973403 3.51484446440309
O -8.53409788294715 2.6227700475507048 10.780959507064583
H -8.903180527255582 3.334444241983623 11.32526199608016
H -8.276596593674439 1.9455226127187588 11.42438078611622
O 0.11345729447619357 -11.461302362100254 -4.378582325314182
H 0.004230098705362728 -12.303463006124288 -4.845275186049233
H 0.6735580340796563 -11.684936150703095 -3.620138501164499
O 0.4820392538879878 2.678789363378523 9.724425804166108
H 0.32015584867394287 2.950557948763126 10.640342261062893
H -0.1714405595999311 3.1790288293500457 9.212872723490877
O -7.334582801477194 -1.0452270685738654 -9.35877575537977
H -8.117596530384303 -0.5035460527928342 -9.178668747227901
H -6.592411287491015 -0.4393519686703984 -9.213659417759139
O 2.2336313506790435 4.411651734273285 -10.354711840641146
H 3.1285032940017294 4.570461519215541 -10.69079369698045
H 1.6695085314070242 4.955110275837281 -10.925132915530321
C 8.354269318840085 3.534613678185824 5.577457684219803
O 7.464174950760838 3.3575475521766185 6.357968965517966
O 9.24436368691933 3.7116798041950307 4.796946402921641