146

C -5.3564454929577465 1.0091607042253532 -0.0734429577464788
C -4.079135492957747 0.16955070422535368 -0.19788295774647868
C -4.333545492957747 -1.2789292957746463 0.3017270422535212
C -3.1403854929577464 -2.1745492957746464 0.7330270422535212
C -2.905235492957746 0.902300704225353 0.41966704225352136
C -2.7423854929577463 1.056130704225354 1.8024770422535212
C -1.8861754929577463 1.3499307042253532 -0.4326129577464788
C -1.5304554929577463 1.5279207042253526 2.3254170422535214
H -3.5237954929577464 0.7301007042253529 2.484817042253521
C -0.6776454929577462 1.8010507042253527 0.08546704225352131
H -1.9759254929577463 1.2426607042253535 -1.5115229577464788
C -0.4680254929577463 1.8513207042253539 1.4698070422535212
H -1.3950654929577464 1.5446707042253527 3.404047042253521
H 0.1461845070422536 1.9972507042253538 -0.6030529577464789
C -1.8679654929577463 -2.0866092957746467 -0.08765295774647863
C -0.6628654929577462 -1.814079295774647 0.5787970422535212
C -1.8438954929577462 -2.213429295774647 -1.4808029577464787
C 0.5129345070422537 -1.5763292957746469 -0.13022295774647863
H -0.6401854929577462 -1.7032692957746463 1.6609470422535213
C -0.6547954929577462 -1.9962392957746466 -2.1933129577464787
H -2.7578654929577464 -2.4351492957746466 -2.026182957746479
C 0.5308845070422537 -1.645769295774647 -1.5261029577464789
H 1.4044045070422537 -1.2610992957746463 0.41551704225352126
H -0.6795654929577464 -2.0467992957746466 -3.2793129577464786
C 1.7843245070422535 -1.2521692957746469 -2.2771629577464787
H 1.4981245070422535 -0.9384492957746469 -3.290282957746479
H 2.241984507042254 -0.38631929577464685 -1.8135029577464787
C 0.9385645070422537 2.0647807042253534 1.9815670422535212
H 1.0508945070422537 1.5807407042253532 2.9609770422535213
H 1.6053245070422537 1.5496207042253536 1.3096170422535214
C 3.9676945070422533 -1.6881692957746468 -3.314052957746479
H 4.795084507042254 -2.398849295774647 -3.4044129577464783
H 3.548404507042253 -1.4816192957746468 -4.303802957746479
H 4.307714507042253 -0.7637192957746466 -2.851282957746479
C 2.344694507042253 -3.565079295774647 -3.101282957746479
H 1.6334345070422536 -4.047909295774646 -2.4251929577464786
H 1.8561845070422536 -3.293109295774647 -4.041792957746479
H 3.1808045070422537 -4.243519295774647 -3.298122957746479
C 3.5156645070422536 -2.648489295774647 -1.1110629577464786
H 3.9311845070422535 -1.748249295774647 -0.6771029577464787
H 2.767184507042254 -3.1044092957746465 -0.45972295774647876
H 4.319224507042254 -3.371819295774647 -1.2863129577464787
C 2.963994507042253 3.381090704225353 2.401027042253521
H 3.3337945070422537 4.369820704225353 2.6912870422535216
H 3.120994507042253 2.671350704225353 3.2183370422535216
H 3.4665445070422534 3.0664207042253535 1.4881370422535212
C 1.2973745070422538 4.282440704225354 0.8488370422535213
H 1.7592145070422538 3.7367207042253527 0.02653704225352116
H 0.23311450704225378 4.4484607042253534 0.6605570422535213
H 1.7921845070422535 5.251370704225354 0.9736770422535213
C 0.7724845070422537 4.194670704225353 3.2772470422535216
H -0.2956954929577462 4.278220704225354 3.057857042253521
H 0.9298945070422537 3.612620704225354 4.190337042253521
H 1.2046345070422537 5.193640704225353 3.3918370422535213
N 2.876084507042253 -2.324759295774647 -2.4576629577464786
N 1.4527845070422536 3.504690704225353 2.1388470422535213
C -3.593905492957746 -3.637819295774647 0.8297870422535213
H -2.8952554929577463 -1.8680692957746468 1.7595270422535212
H -5.022615492957747 -1.2402792957746467 1.1579970422535213
H -4.898275492957747 -1.7933092957746464 -0.48931295774647876
H -3.883675492957746 0.07871070422535364 -1.2758929577464788
H -3.8751654929577466 -4.038529295774646 -0.1505529577464788
H -4.4603554929577465 -3.7321892957746465 1.4932570422535212
H -2.7953554929577464 -4.271929295774647 1.2313670422535212
H -5.648775492957746 1.147700704225353 0.9733970422535213
H -6.189795492957747 0.5254307042253537 -0.5943629577464788
H -5.2178854929577465 2.002970704225354 -0.5139729577464787
C 3.6710445070422537 1.0263707042253536 -0.27764295774647874
O 2.7356545070422538 1.6631507042253526 -0.7327029577464788
O 3.650814507042253 0.3883007042253537 0.7790570422535212
O 4.756604507042254 0.8696707042253538 -0.8334829577464786
O -0.5193229013338986 -9.153115043611221 5.636822378789169
H -0.416795097174943 -9.129921668983858 6.6001071101369355
H -0.1765586831319479 -10.02403035851054 5.385861925143131
O -6.445924746937381 -9.639413727550073 -2.400037377518037
H -7.122644933549688 -10.177228729990698 -2.837955371075274
H -6.920278663538417 -9.216426643135877 -1.6685784022336851
O 6.402813520257461 2.7067262462547688 -14.12799177509611
H 7.009269927305252 2.202508121426201 -14.69096785437928
H 6.972367729786291 3.0604365352036678 -13.428378325968897
O 6.113958369663903 -5.722650689561151 6.534731021564474
H 6.3697597677919955 -5.282390531110288 7.359172647452283
H 6.132797525264264 -5.01322196484639 5.874944756880332
O 7.218737205857675 2.1916930340886767 -3.0941776799889342
H 7.229055602102976 2.126152040849484 -2.127448521535469
H 7.230592880723972 1.2694894796175706 -3.391435129675767
O -0.6245731738195155 2.8415586224853517 7.565720570327695
H -1.0302029678644868 3.721576216874846 7.564792859185905
H -1.3624976873517736 2.243496725070642 7.374014223304713
O 7.518189348201886 -9.943508138442903 7.644825421901097
H 7.455518688658749 -9.866115099787272 8.608697852723806
H 7.135821161535443 -9.11523124358147 7.318154487221993
O 7.343765189572551 -10.864103455379018 -6.933558845285858
H 7.230700563760455 -11.792476219148865 -6.679969100263884
H 6.499760101079646 -10.630278817411813 -7.3482194216342585
O -0.32357131123060434 -5.487421442559428 -0.7495131577398324
H -1.1957525225990573 -5.257934173704268 -0.39510818476504633
H -0.07392655311942331 -4.713387999356877 -1.276306919900713
O -6.169821591463536 8.0089539167313 -4.750678678366464
H -7.0111007309313536 8.475513720922391 -4.6343226922314145
H -6.320103543077209 7.14766068861251 -4.332885362819292
O -3.8556697300903293 5.200642556691422 -10.144593044470291
H -3.644701634844737 5.757926216459389 -10.908723100314237
H -4.67936738610681 5.577468251405105 -9.800374347162162
O 1.6830414394185462 11.595709731715058 3.5929821754507545
H 1.0039262090525103 11.246733426508515 4.189627295425162
H 2.516173732999592 11.291297855356916 3.9830923332581385
O -8.657002073575025 4.766827611653911 2.6846277155208704
H -8.540467010159244 4.852083952206003 1.7264428208943974
H -7.898702566851365 5.2423559690826025 3.0558642757945362
O -11.294644786244934 2.1948444469451545 -7.821416924128156
H -11.313504843604004 2.2120350187990026 -6.852749726698745
H -12.061679019885645 2.7275583007293474 -8.079944250942171
O 10.426249625448072 -4.783668466666552 -0.15378975488855584
H 10.106014180458581 -4.7247941977808114 -1.0664509390831909
H 9.70078244610501 -4.416019238228033 0.3729866310899572
O -7.590846589241052 -3.850407344300336 4.148076028217209
H -7.126503976361865 -4.394573059772812 4.8017096938655275
H -8.42635721812669 -3.6236984439791455 4.583377082470796
O -2.2143433431196065 -7.7569609397877715 3.6825440452638816
H -2.681234252850279 -7.984922454163954 4.500476672852599
H -1.279613061594814 -7.886397797679983 3.9027424669647957
O -12.619186960388987 -0.08583982316291916 -5.882983519960135
H -12.590592609465023 -0.025588008102541693 -4.91627806389962
H -12.331065347612025 0.7901186174794361 -6.18071610268869
O -4.372275398975316 -0.35376868529876804 7.984493091802227
H -5.27223196999803 -0.3739645049670073 8.343154012507238
H -4.059323548144525 0.5404960891965289 8.187750555277637
O -14.314158672993791 -4.348764615411408 2.327483261928485
H -15.207583862434312 -3.9767959280994223 2.2785130318640245
H -14.461606104989507 -5.304454646084928 2.3897549599069086
O 5.041722140170256 -0.15001414453324413 -7.57509473238124
H 5.484990598315382 -0.8949614411702211 -8.008146641679541
H 4.098649771822744 -0.35091928501645464 -7.6710821111705165
O 7.2864809422792245 -7.981505974569 -1.2172269266126223
H 7.368690577874446 -7.484155479375744 -2.0447844277243723
H 7.232314161040723 -7.294717811629729 -0.5357946677953849
O -10.180726067191658 -2.5496049991917795 -4.673464054771666
H -9.92609283936308 -2.5789938118626536 -3.7389772577138407
H -10.449175794343448 -1.6292106620120204 -4.814073273457927
O -3.7509408041212016 8.692048747002175 3.8867894395275817
H -2.9201556506513295 8.218153212215402 3.731269640842017
H -4.0529312334430205 8.359461788291382 4.745363629562156
C -4.5796187034610965 -13.422748170826702 -1.3878929611864343
O -4.441245151963203 -12.50379753375857 -2.1423468989307706
O -4.717992254958989 -14.341698807894833 -0.6334390234420972