146

C -5.3564454929577465 1.0091607042253532 -0.0734429577464788
C -4.079135492957747 0.16955070422535368 -0.19788295774647868
C -4.333545492957747 -1.2789292957746463 0.3017270422535212
C -3.1403854929577464 -2.1745492957746464 0.7330270422535212
C -2.905235492957746 0.902300704225353 0.41966704225352136
C -2.7423854929577463 1.056130704225354 1.8024770422535212
C -1.8861754929577463 1.3499307042253532 -0.4326129577464788
C -1.5304554929577463 1.5279207042253526 2.3254170422535214
H -3.5237954929577464 0.7301007042253529 2.484817042253521
C -0.6776454929577462 1.8010507042253527 0.08546704225352131
H -1.9759254929577463 1.2426607042253535 -1.5115229577464788
C -0.4680254929577463 1.8513207042253539 1.4698070422535212
H -1.3950654929577464 1.5446707042253527 3.404047042253521
H 0.1461845070422536 1.9972507042253538 -0.6030529577464789
C -1.8679654929577463 -2.0866092957746467 -0.08765295774647863
C -0.6628654929577462 -1.814079295774647 0.5787970422535212
C -1.8438954929577462 -2.213429295774647 -1.4808029577464787
C 0.5129345070422537 -1.5763292957746469 -0.13022295774647863
H -0.6401854929577462 -1.7032692957746463 1.6609470422535213
C -0.6547954929577462 -1.9962392957746466 -2.1933129577464787
H -2.7578654929577464 -2.4351492957746466 -2.026182957746479
C 0.5308845070422537 -1.645769295774647 -1.5261029577464789
H 1.4044045070422537 -1.2610992957746463 0.41551704225352126
H -0.6795654929577464 -2.0467992957746466 -3.2793129577464786
C 1.7843245070422535 -1.2521692957746469 -2.2771629577464787
H 1.4981245070422535 -0.9384492957746469 -3.290282957746479
H 2.241984507042254 -0.38631929577464685 -1.8135029577464787
C 0.9385645070422537 2.0647807042253534 1.9815670422535212
H 1.0508945070422537 1.5807407042253532 2.9609770422535213
H 1.6053245070422537 1.5496207042253536 1.3096170422535214
C 3.9676945070422533 -1.6881692957746468 -3.314052957746479
H 4.795084507042254 -2.398849295774647 -3.4044129577464783
H 3.548404507042253 -1.4816192957746468 -4.303802957746479
H 4.307714507042253 -0.7637192957746466 -2.851282957746479
C 2.344694507042253 -3.565079295774647 -3.101282957746479
H 1.6334345070422536 -4.047909295774646 -2.4251929577464786
H 1.8561845070422536 -3.293109295774647 -4.041792957746479
H 3.1808045070422537 -4.243519295774647 -3.298122957746479
C 3.5156645070422536 -2.648489295774647 -1.1110629577464786
H 3.9311845070422535 -1.748249295774647 -0.6771029577464787
H 2.767184507042254 -3.1044092957746465 -0.45972295774647876
H 4.319224507042254 -3.371819295774647 -1.2863129577464787
C 2.963994507042253 3.381090704225353 2.401027042253521
H 3.3337945070422537 4.369820704225353 2.6912870422535216
H 3.120994507042253 2.671350704225353 3.2183370422535216
H 3.4665445070422534 3.0664207042253535 1.4881370422535212
C 1.2973745070422538 4.282440704225354 0.8488370422535213
H 1.7592145070422538 3.7367207042253527 0.02653704225352116
H 0.23311450704225378 4.4484607042253534 0.6605570422535213
H 1.7921845070422535 5.251370704225354 0.9736770422535213
C 0.7724845070422537 4.194670704225353 3.2772470422535216
H -0.2956954929577462 4.278220704225354 3.057857042253521
H 0.9298945070422537 3.612620704225354 4.190337042253521
H 1.2046345070422537 5.193640704225353 3.3918370422535213
N 2.876084507042253 -2.324759295774647 -2.4576629577464786
N 1.4527845070422536 3.504690704225353 2.1388470422535213
C -3.593905492957746 -3.637819295774647 0.8297870422535213
H -2.8952554929577463 -1.8680692957746468 1.7595270422535212
H -5.022615492957747 -1.2402792957746467 1.1579970422535213
H -4.898275492957747 -1.7933092957746464 -0.48931295774647876
H -3.883675492957746 0.07871070422535364 -1.2758929577464788
H -3.8751654929577466 -4.038529295774646 -0.1505529577464788
H -4.4603554929577465 -3.7321892957746465 1.4932570422535212
H -2.7953554929577464 -4.271929295774647 1.2313670422535212
H -5.648775492957746 1.147700704225353 0.9733970422535213
H -6.189795492957747 0.5254307042253537 -0.5943629577464788
H -5.2178854929577465 2.002970704225354 -0.5139729577464787
C 3.6710445070422537 1.0263707042253536 -0.27764295774647874
O 2.7356545070422538 1.6631507042253526 -0.7327029577464788
O 3.650814507042253 0.3883007042253537 0.7790570422535212
O 4.756604507042254 0.8696707042253538 -0.8334829577464786
O 1.251665230959404 9.413102890115635 5.916492241539454
H 0.3373352336159088 9.712297780769033 6.032468231575088
H 1.1620665338555454 8.489745781351557 5.636589280726006
O 7.595385251113013 -1.536060479272502 6.851718144213926
H 7.840127066439697 -1.9766664422865083 6.024110032794578
H 6.855733886133706 -2.0640032976085747 7.188102125924729
O 1.4607437563930192 9.691258965238564 1.4698175094547425
H 1.142909277972648 9.662763702870988 0.5548658051283042
H 0.6536731875043826 9.613784788128104 2.000474454207969
O -2.715995529190974 -7.068843745109508 9.185069905918896
H -2.872467845847049 -7.094644244536718 10.141008243495953
H -3.131146181049464 -6.240224554619431 8.902223449845922
O -9.609773296015465 8.77208679346058 -3.90756932886559
H -9.786380557989576 8.916061253672876 -4.8494018971730295
H -8.831349999884917 9.32079177452673 -3.728846190759613
O 12.284836209252479 6.391669423014487 -4.849786118713994
H 12.508936306762777 6.46033591995054 -5.790015566984152
H 12.752192079903462 5.595536537269758 -4.555315640221109
O -3.1958396055801224 3.7968164528877653 -10.972895906229185
H -3.5914944973218814 2.9239473489319083 -11.116158221232531
H -3.4572989540173245 4.30373644687528 -11.756243257734564
O 10.335625668753451 -3.8811649403790214 -8.8234392017257
H 10.201716213341804 -4.835674009262391 -8.923179123877063
H 9.80386353398117 -3.650079343520895 -8.047043411392476
O 2.3484456208476043 -9.487333199457684 -3.2098530919639083
H 2.741882136675168 -8.840573025729356 -2.6049759618024435
H 1.405463605171581 -9.264293169900935 -3.2099404241281304
O -8.073144829130026 5.886984417450587 6.0300213609894
H -8.322159347749777 5.549039914014585 6.903378469516015
H -7.549943303104369 5.169625266076476 5.641926069335097
O -8.23310208225625 -5.034323695235376 0.8923767267647782
H -8.411473301634118 -5.7705618604025055 1.4966154454422487
H -8.3830826128973 -4.245161223207253 1.434308805046817
O 4.803402481948826 4.767053361302386 12.038572110394597
H 5.608173058887022 4.691096814808052 12.572933671923137
H 4.608311657679405 5.71620196824353 12.04286588816792
O -11.737302855115782 -9.674140463465099 -5.200989894412906
H -12.49318683718728 -9.621419763287264 -5.804999240632398
H -12.064569868603602 -9.274656103750605 -4.381068866187467
O 7.09549411751625 6.784494647037309 0.22680810769736848
H 7.291845561964966 7.16935598043144 -0.6405414303903592
H 7.676793740684893 6.010819148513173 0.27659681512608963
O 1.0824804122116463 -2.6385047883523023 1.9371879250085708
H 1.423771783793789 -3.545360930727865 1.9471625738391605
H 0.3809785057716614 -2.659762834377449 1.269052373611806
O -7.002239245004547 -1.8458371610816344 -3.957356540856493
H -6.73969810722236 -2.5441148479989124 -3.3389329159637406
H -7.510513683432191 -1.2279720697519578 -3.4106740292858087
O -8.70585609736089 -0.31907991541091674 5.38329025519494
H -8.904864002771218 -0.5317501040802886 4.459096227224878
H -8.381387721386158 0.5933330398682745 5.348869094101635
O 2.505881986631649 10.999332113715433 -6.304575597521531
H 2.486439088455314 11.077090532850132 -7.270258236313478
H 3.4467217969116044 11.068157577180365 -6.083113521149041
O 5.595575572679691 6.24694459086365 -0.7010635299927344
H 5.604579020458448 6.748119028225833 0.12821958099095992
H 4.654019365824356 6.165326043591156 -0.9150080704075823
O -12.976448630427214 -9.606793475019998 3.5473740522222172
H -13.561161784002206 -10.038108905858358 2.906246230288782
H -12.154461481895664 -10.117226314242757 3.4948632096088676
O -7.915239846603458 11.497658624758822 -4.6330694775685375
H -8.837532870155833 11.470095269981842 -4.929014062043498
H -7.942514120342721 11.109649971288489 -3.745563227943143
O -6.699749160422202 4.482257154337946 -7.868159094968624
H -6.7344586759854295 4.558243327332634 -6.902763472468196
H -6.875034534617067 3.5440579156780805 -8.035548373213727
O -6.887846494382145 -5.567970109774405 -8.72724341986194
H -7.12487691046673 -5.479043442857744 -9.662591476288993
H -6.043617877998007 -5.097993046947425 -8.654020827756433
O 3.9262548685277343 -8.574705285222771 -1.0515927211491773
H 4.474763707099706 -8.205377853047803 -0.3432830016397858
H 3.5890750576966646 -9.40310885555238 -0.6787398760036915
C -5.469147218625605 -4.630470995511224 -3.7236014483677136
O -5.372579146433632 -4.239056151228191 -4.850671669963518
O -5.565715290817578 -5.0218858397942565 -2.5965312267719094