146

C -5.3564454929577465 1.0091607042253532 -0.0734429577464788
C -4.079135492957747 0.16955070422535368 -0.19788295774647868
C -4.333545492957747 -1.2789292957746463 0.3017270422535212
C -3.1403854929577464 -2.1745492957746464 0.7330270422535212
C -2.905235492957746 0.902300704225353 0.41966704225352136
C -2.7423854929577463 1.056130704225354 1.8024770422535212
C -1.8861754929577463 1.3499307042253532 -0.4326129577464788
C -1.5304554929577463 1.5279207042253526 2.3254170422535214
H -3.5237954929577464 0.7301007042253529 2.484817042253521
C -0.6776454929577462 1.8010507042253527 0.08546704225352131
H -1.9759254929577463 1.2426607042253535 -1.5115229577464788
C -0.4680254929577463 1.8513207042253539 1.4698070422535212
H -1.3950654929577464 1.5446707042253527 3.404047042253521
H 0.1461845070422536 1.9972507042253538 -0.6030529577464789
C -1.8679654929577463 -2.0866092957746467 -0.08765295774647863
C -0.6628654929577462 -1.814079295774647 0.5787970422535212
C -1.8438954929577462 -2.213429295774647 -1.4808029577464787
C 0.5129345070422537 -1.5763292957746469 -0.13022295774647863
H -0.6401854929577462 -1.7032692957746463 1.6609470422535213
C -0.6547954929577462 -1.9962392957746466 -2.1933129577464787
H -2.7578654929577464 -2.4351492957746466 -2.026182957746479
C 0.5308845070422537 -1.645769295774647 -1.5261029577464789
H 1.4044045070422537 -1.2610992957746463 0.41551704225352126
H -0.6795654929577464 -2.0467992957746466 -3.2793129577464786
C 1.7843245070422535 -1.2521692957746469 -2.2771629577464787
H 1.4981245070422535 -0.9384492957746469 -3.290282957746479
H 2.241984507042254 -0.38631929577464685 -1.8135029577464787
C 0.9385645070422537 2.0647807042253534 1.9815670422535212
H 1.0508945070422537 1.5807407042253532 2.9609770422535213
H 1.6053245070422537 1.5496207042253536 1.3096170422535214
C 3.9676945070422533 -1.6881692957746468 -3.314052957746479
H 4.795084507042254 -2.398849295774647 -3.4044129577464783
H 3.548404507042253 -1.4816192957746468 -4.303802957746479
H 4.307714507042253 -0.7637192957746466 -2.851282957746479
C 2.344694507042253 -3.565079295774647 -3.101282957746479
H 1.6334345070422536 -4.047909295774646 -2.4251929577464786
H 1.8561845070422536 -3.293109295774647 -4.041792957746479
H 3.1808045070422537 -4.243519295774647 -3.298122957746479
C 3.5156645070422536 -2.648489295774647 -1.1110629577464786
H 3.9311845070422535 -1.748249295774647 -0.6771029577464787
H 2.767184507042254 -3.1044092957746465 -0.45972295774647876
H 4.319224507042254 -3.371819295774647 -1.2863129577464787
C 2.963994507042253 3.381090704225353 2.401027042253521
H 3.3337945070422537 4.369820704225353 2.6912870422535216
H 3.120994507042253 2.671350704225353 3.2183370422535216
H 3.4665445070422534 3.0664207042253535 1.4881370422535212
C 1.2973745070422538 4.282440704225354 0.8488370422535213
H 1.7592145070422538 3.7367207042253527 0.02653704225352116
H 0.23311450704225378 4.4484607042253534 0.6605570422535213
H 1.7921845070422535 5.251370704225354 0.9736770422535213
C 0.7724845070422537 4.194670704225353 3.2772470422535216
H -0.2956954929577462 4.278220704225354 3.057857042253521
H 0.9298945070422537 3.612620704225354 4.190337042253521
H 1.2046345070422537 5.193640704225353 3.3918370422535213
N 2.876084507042253 -2.324759295774647 -2.4576629577464786
N 1.4527845070422536 3.504690704225353 2.1388470422535213
C -3.593905492957746 -3.637819295774647 0.8297870422535213
H -2.8952554929577463 -1.8680692957746468 1.7595270422535212
H -5.022615492957747 -1.2402792957746467 1.1579970422535213
H -4.898275492957747 -1.7933092957746464 -0.48931295774647876
H -3.883675492957746 0.07871070422535364 -1.2758929577464788
H -3.8751654929577466 -4.038529295774646 -0.1505529577464788
H -4.4603554929577465 -3.7321892957746465 1.4932570422535212
H -2.7953554929577464 -4.271929295774647 1.2313670422535212
H -5.648775492957746 1.147700704225353 0.9733970422535213
H -6.189795492957747 0.5254307042253537 -0.5943629577464788
H -5.2178854929577465 2.002970704225354 -0.5139729577464787
C 3.6710445070422537 1.0263707042253536 -0.27764295774647874
O 2.7356545070422538 1.6631507042253526 -0.7327029577464788
O 3.650814507042253 0.3883007042253537 0.7790570422535212
O 4.756604507042254 0.8696707042253538 -0.8334829577464786
O -8.9174241802687 -1.7226297218970439 -2.7424737178768748
H -9.392110356599213 -1.1444907587671964 -3.3584247956516133
H -9.381863899260399 -1.5997075392413556 -1.9009585197169891
O 1.8521997461395976 -0.9879454401976553 -5.973931881783463
H 2.170825983384032 -1.6221806231057871 -5.314242249758718
H 1.9636112547332083 -1.4517128312653533 -6.817418234390994
O 7.468744861142089 -8.122936837208634 0.49200650762855
H 8.433342833458065 -8.215224699461595 0.49097734064186094
H 7.173999785668922 -8.753585923563637 1.16607550607301
O -12.042602076229354 -2.6911603849240535 -11.860642052750533
H -12.0225944164791 -2.6190574930728054 -12.826751893005774
H -11.300147692423977 -2.140779086963409 -11.569431031112726
O -1.6250238657956588 -1.0167712246325453 -8.027680718425911
H -1.8978382183063502 -0.37518325536149844 -7.35469887346215
H -2.018531574438423 -0.6789979767184224 -8.846229959786665
O 8.445286721434018 -2.1982255883503674 -8.5654691673235
H 8.642568070382369 -2.8814095193739013 -7.907208472273011
H 8.127369003739586 -1.4499931628030505 -8.038175599720455
O -2.498432260491436 -4.899006574239353 3.457167161561658
H -1.6506494162222027 -4.503303599958779 3.2048761351491484
H -2.7078559527052484 -5.49299613398043 2.720770485606276
O 5.001969674014964 -6.046997726882817 2.255702423910974
H 5.005213847392522 -5.935006199926771 3.2182068291627894
H 4.294713012782331 -5.457394416923523 1.9538450133226086
O 2.0977112760236767 -10.257832183329715 1.2945076376875901
H 2.0040315673608533 -11.2214265340365 1.2535516079627493
H 2.5640142143639792 -10.032978309834206 0.4753835630998231
O -1.2474266225148023 -9.349635274907518 -10.59233057743523
H -1.1215348304514698 -10.305152177382457 -10.49180166280972
H -0.3686631824449629 -9.022156391855463 -10.83624519743904
O 7.091340442726878 -1.483045189391356 -6.145740767680222
H 7.782318254013379 -1.0443778879305698 -6.664477714348598
H 6.640421423625262 -0.7545245894758228 -5.693091104020623
O 9.38550602022353 -0.6889537057611754 -3.7888578704979676
H 9.692731570026963 -1.2034533746774372 -4.5503497674561935
H 10.20128279934364 -0.3485031399540315 -3.3919150494392953
O -1.537813924771977 -12.083985030673631 -1.5082764293152282
H -0.7599194479069258 -11.913014608416727 -2.0601973063222
H -1.5617003123593731 -13.04953220138926 -1.4301096466574457
O -3.0297971526910126 6.313007136970779 -0.024221661678085815
H -3.712626819037792 6.717107138094472 0.5320284553992758
H -3.3437742462284596 5.406187537977694 -0.1586037435037279
O -3.3001774934028627 -0.2697528554243318 13.689218227456207
H -3.8849078115928846 0.42531341962566493 13.351667216233427
H -2.5537575519625366 0.21683410717272178 14.070075606472017
O -8.30603641212313 4.922280583739921 4.164797441800598
H -8.609528811137633 4.050173304981326 4.458546680057824
H -9.041396240249412 5.513002302888621 4.386733734470559
O 4.2222460328885045 -7.8251061310723395 0.32734735687234284
H 3.649923442561686 -8.532317371088844 0.660913649377922
H 5.018590645278982 -8.28960324651562 0.02895226247310312
O 7.857108531874178 6.201803568892544 -5.403853940931056
H 8.287994787402397 7.035647174932678 -5.644704999394286
H 8.535248109507991 5.530578446676083 -5.572808055566157
O 3.616026333941387 3.3256333111473775 -12.806831723954087
H 3.677777158028989 2.9648245117437746 -13.704033598059036
H 2.6686441025524577 3.4884903614877514 -12.684739819623932
O -7.68024005878283 -8.54083877128987 -13.955849542057543
H -7.71813231441609 -9.491991172251256 -14.137069419577692
H -6.999079851083263 -8.459925227541865 -13.271425905568545
O -0.7225607468490147 8.800861854531941 3.3111688896041014
H -0.3895130488849685 8.9847936957244 2.4199811060385934
H -0.8833558234964247 9.679456587897313 3.6869057418405893
O 13.837730426477233 -1.8197029078330287 -6.026788515982558
H 14.646304369730926 -1.3347728616303134 -6.250436421139327
H 13.368165833134622 -1.8938745189486217 -6.87116379338207
O -6.664080150750514 -9.216677522802412 -8.587405620067797
H -5.8096819591871665 -9.621627327655963 -8.375304835763842
H -6.554149745672088 -8.901048125491357 -9.4969413994038
O 1.0704971786782917 -2.3842870649992154 -8.589861299600654
H 0.9002327938872607 -2.7954604049843743 -7.729097754451825
H 0.8010615302189361 -3.0603750750346856 -9.229604512402137
C -5.152221192724488 4.220159376449802 -1.2918016875415206
O -5.771069318466724 4.927330909587107 -2.0332554469126323
O -4.533373066982254 3.5129878433124957 -0.5503479281704089