146

C -5.3564454929577465 1.0091607042253532 -0.0734429577464788
C -4.079135492957747 0.16955070422535368 -0.19788295774647868
C -4.333545492957747 -1.2789292957746463 0.3017270422535212
C -3.1403854929577464 -2.1745492957746464 0.7330270422535212
C -2.905235492957746 0.902300704225353 0.41966704225352136
C -2.7423854929577463 1.056130704225354 1.8024770422535212
C -1.8861754929577463 1.3499307042253532 -0.4326129577464788
C -1.5304554929577463 1.5279207042253526 2.3254170422535214
H -3.5237954929577464 0.7301007042253529 2.484817042253521
C -0.6776454929577462 1.8010507042253527 0.08546704225352131
H -1.9759254929577463 1.2426607042253535 -1.5115229577464788
C -0.4680254929577463 1.8513207042253539 1.4698070422535212
H -1.3950654929577464 1.5446707042253527 3.404047042253521
H 0.1461845070422536 1.9972507042253538 -0.6030529577464789
C -1.8679654929577463 -2.0866092957746467 -0.08765295774647863
C -0.6628654929577462 -1.814079295774647 0.5787970422535212
C -1.8438954929577462 -2.213429295774647 -1.4808029577464787
C 0.5129345070422537 -1.5763292957746469 -0.13022295774647863
H -0.6401854929577462 -1.7032692957746463 1.6609470422535213
C -0.6547954929577462 -1.9962392957746466 -2.1933129577464787
H -2.7578654929577464 -2.4351492957746466 -2.026182957746479
C 0.5308845070422537 -1.645769295774647 -1.5261029577464789
H 1.4044045070422537 -1.2610992957746463 0.41551704225352126
H -0.6795654929577464 -2.0467992957746466 -3.2793129577464786
C 1.7843245070422535 -1.2521692957746469 -2.2771629577464787
H 1.4981245070422535 -0.9384492957746469 -3.290282957746479
H 2.241984507042254 -0.38631929577464685 -1.8135029577464787
C 0.9385645070422537 2.0647807042253534 1.9815670422535212
H 1.0508945070422537 1.5807407042253532 2.9609770422535213
H 1.6053245070422537 1.5496207042253536 1.3096170422535214
C 3.9676945070422533 -1.6881692957746468 -3.314052957746479
H 4.795084507042254 -2.398849295774647 -3.4044129577464783
H 3.548404507042253 -1.4816192957746468 -4.303802957746479
H 4.307714507042253 -0.7637192957746466 -2.851282957746479
C 2.344694507042253 -3.565079295774647 -3.101282957746479
H 1.6334345070422536 -4.047909295774646 -2.4251929577464786
H 1.8561845070422536 -3.293109295774647 -4.041792957746479
H 3.1808045070422537 -4.243519295774647 -3.298122957746479
C 3.5156645070422536 -2.648489295774647 -1.1110629577464786
H 3.9311845070422535 -1.748249295774647 -0.6771029577464787
H 2.767184507042254 -3.1044092957746465 -0.45972295774647876
H 4.319224507042254 -3.371819295774647 -1.2863129577464787
C 2.963994507042253 3.381090704225353 2.401027042253521
H 3.3337945070422537 4.369820704225353 2.6912870422535216
H 3.120994507042253 2.671350704225353 3.2183370422535216
H 3.4665445070422534 3.0664207042253535 1.4881370422535212
C 1.2973745070422538 4.282440704225354 0.8488370422535213
H 1.7592145070422538 3.7367207042253527 0.02653704225352116
H 0.23311450704225378 4.4484607042253534 0.6605570422535213
H 1.7921845070422535 5.251370704225354 0.9736770422535213
C 0.7724845070422537 4.194670704225353 3.2772470422535216
H -0.2956954929577462 4.278220704225354 3.057857042253521
H 0.9298945070422537 3.612620704225354 4.190337042253521
H 1.2046345070422537 5.193640704225353 3.3918370422535213
N 2.876084507042253 -2.324759295774647 -2.4576629577464786
N 1.4527845070422536 3.504690704225353 2.1388470422535213
C -3.593905492957746 -3.637819295774647 0.8297870422535213
H -2.8952554929577463 -1.8680692957746468 1.7595270422535212
H -5.022615492957747 -1.2402792957746467 1.1579970422535213
H -4.898275492957747 -1.7933092957746464 -0.48931295774647876
H -3.883675492957746 0.07871070422535364 -1.2758929577464788
H -3.8751654929577466 -4.038529295774646 -0.1505529577464788
H -4.4603554929577465 -3.7321892957746465 1.4932570422535212
H -2.7953554929577464 -4.271929295774647 1.2313670422535212
H -5.648775492957746 1.147700704225353 0.9733970422535213
H -6.189795492957747 0.5254307042253537 -0.5943629577464788
H -5.2178854929577465 2.002970704225354 -0.5139729577464787
C 3.6710445070422537 1.0263707042253536 -0.27764295774647874
O 2.7356545070422538 1.6631507042253526 -0.7327029577464788
O 3.650814507042253 0.3883007042253537 0.7790570422535212
O 4.756604507042254 0.8696707042253538 -0.8334829577464786
O 3.2267247437609643 8.96741431303748 5.338511934096916
H 3.8802135996353817 8.257302409558323 5.42603768279495
H 2.829600574526179 9.03001746832255 6.220178074684121
O 5.8703603754438 0.39549657972665697 -5.998855034059443
H 4.927281516425551 0.5939781703999936 -6.099724656526373
H 6.287589954913314 1.2677339957362972 -5.934954232589373
O 10.375869243261558 -0.6460383438244076 4.181445550954393
H 10.348465300858264 -0.6266250348695686 3.2130244110177526
H 9.61876246697306 -0.10315170897171666 4.447951414485302
O -1.6288847464090983 -0.4197598034907637 13.28681298163736
H -1.2132532405877492 -0.3697767836845407 14.160723449591446
H -2.5474113135795244 -0.15722058964326857 13.44912148694269
O -3.7738298524761404 -2.839624041430516 -9.48611531395788
H -4.689359639420919 -2.6704356261475857 -9.217511802717056
H -3.8420531942828164 -3.05241633622694 -10.428997575540947
O 4.88274347050749 -7.186700589687757 4.042245158305431
H 4.354144282743612 -6.892959821372532 3.285101435736889
H 4.288952039410399 -7.780223607451028 4.526088219680551
O -4.605380637803211 6.4336581073401025 5.547106547604789
H -4.626070747490183 6.595884741685533 4.592003518937149
H -3.6603300694125323 6.406437204962776 5.759475071539525
O 6.361127332669369 3.7206315535923262 -7.97298261580553
H 5.73878597382914 4.039639558337976 -7.302242365868867
H 6.1118897554234906 2.793054306071747 -8.101212972081846
O -13.399035851487444 -10.301431539357113 -4.783106360678952
H -13.383704101801401 -11.108258625616944 -5.319541209685833
H -13.61407557888501 -9.602039722021175 -5.418378700533533
O 3.3120788038064184 -2.8800757631692315 -11.673358714018107
H 3.2620488349105905 -2.799382355460682 -12.63769938673946
H 3.8757451284434246 -3.655540060136521 -11.532300772379797
O 3.831147523208588 -2.871577515883467 6.645866216343052
H 3.6519745215061326 -3.363527642013085 5.830483198515241
H 4.747195925539685 -3.1021618925548053 6.8618479612238
O 0.0812522130822928 -1.2139765186058131 12.53966234526568
H 0.9046759876895516 -0.704689679088566 12.57925476128276
H 0.3780482402484924 -2.1332513361915053 12.463452947478064
O 10.492743334302464 -8.206689999084725 -1.8883760745759544
H 10.107873461366799 -7.936670872548048 -1.0410672707087592
H 11.128592561824817 -7.504155259223813 -2.0911139433814228
O 7.106391927791879 4.371541517406465 -3.8292002069597024
H 7.174205937296519 4.707652277626468 -4.735510404342055
H 6.184927780413643 4.080921116211483 -3.7556777491269706
O -0.8176520672938059 4.446736830164063 7.706157208859472
H -0.7614976660781632 4.490426685794535 8.672544934691658
H 0.08139820846974133 4.213770879031918 7.429756391996382
O 2.7454072697731045 8.178855001006658 -3.9943644217262024
H 2.195407048235817 8.306648368177822 -3.2068772989641907
H 2.4926554602764925 8.910241396396081 -4.57759028512344
O 9.689622056648979 -2.0873764261937238 -2.9513946783798017
H 9.730077752510228 -1.3434455318604863 -2.3318000382892565
H 9.736048989657116 -2.8695671787201364 -2.3813209017038166
O -4.23358456362006 8.856937612351414 -5.917623515855775
H -4.271810544104573 8.891493859157055 -6.88525567588494
H -4.750032527101119 9.626716914050046 -5.635341259961725
O -3.694912805427218 -9.406090420560327 3.6959061705493355
H -4.318092507795889 -10.084428150773137 3.996692372402788
H -2.924595147900485 -9.912096941636563 3.3966904433041734
O -5.249275011968001 12.14086811723907 6.002596400825044
H -5.0127127412303665 13.08049765134241 5.9924975095892945
H -6.083615725785103 12.114836790542562 6.494693837922198
O -0.5111713398883775 -5.631316320310015 -2.3978411848454098
H -0.1869648533211774 -5.698242492281325 -1.487139038985953
H -1.4661382597595285 -5.7746250421202046 -2.317450037914074
O -5.793663158798069 4.376792372079057 2.025446237680636
H -5.894348133552157 5.094801828868971 2.6683243853252914
H -6.7025196933455975 4.08930725573464 1.851394372448763
O 7.353410839054339 -3.2606859872897047 -7.043147928725161
H 7.219816627763683 -4.024724438435504 -7.623979392043357
H 7.413116687227032 -3.6479948458687734 -6.15692617089016
O -15.970898109462954 -4.7033281472427735 -4.89937670137589
H -16.353299149102362 -5.2400299389140805 -5.609790657178778
H -16.68385888300484 -4.6369398018579995 -4.246504993237431
C -1.3676501689249938 9.137833557948586 5.891323808458712
O -1.136950243947179 9.242629656332225 7.06120140020872
O -1.5983500939028086 9.033037459564946 4.721446216708705