146

C -5.3564454929577465 1.0091607042253532 -0.0734429577464788
C -4.079135492957747 0.16955070422535368 -0.19788295774647868
C -4.333545492957747 -1.2789292957746463 0.3017270422535212
C -3.1403854929577464 -2.1745492957746464 0.7330270422535212
C -2.905235492957746 0.902300704225353 0.41966704225352136
C -2.7423854929577463 1.056130704225354 1.8024770422535212
C -1.8861754929577463 1.3499307042253532 -0.4326129577464788
C -1.5304554929577463 1.5279207042253526 2.3254170422535214
H -3.5237954929577464 0.7301007042253529 2.484817042253521
C -0.6776454929577462 1.8010507042253527 0.08546704225352131
H -1.9759254929577463 1.2426607042253535 -1.5115229577464788
C -0.4680254929577463 1.8513207042253539 1.4698070422535212
H -1.3950654929577464 1.5446707042253527 3.404047042253521
H 0.1461845070422536 1.9972507042253538 -0.6030529577464789
C -1.8679654929577463 -2.0866092957746467 -0.08765295774647863
C -0.6628654929577462 -1.814079295774647 0.5787970422535212
C -1.8438954929577462 -2.213429295774647 -1.4808029577464787
C 0.5129345070422537 -1.5763292957746469 -0.13022295774647863
H -0.6401854929577462 -1.7032692957746463 1.6609470422535213
C -0.6547954929577462 -1.9962392957746466 -2.1933129577464787
H -2.7578654929577464 -2.4351492957746466 -2.026182957746479
C 0.5308845070422537 -1.645769295774647 -1.5261029577464789
H 1.4044045070422537 -1.2610992957746463 0.41551704225352126
H -0.6795654929577464 -2.0467992957746466 -3.2793129577464786
C 1.7843245070422535 -1.2521692957746469 -2.2771629577464787
H 1.4981245070422535 -0.9384492957746469 -3.290282957746479
H 2.241984507042254 -0.38631929577464685 -1.8135029577464787
C 0.9385645070422537 2.0647807042253534 1.9815670422535212
H 1.0508945070422537 1.5807407042253532 2.9609770422535213
H 1.6053245070422537 1.5496207042253536 1.3096170422535214
C 3.9676945070422533 -1.6881692957746468 -3.314052957746479
H 4.795084507042254 -2.398849295774647 -3.4044129577464783
H 3.548404507042253 -1.4816192957746468 -4.303802957746479
H 4.307714507042253 -0.7637192957746466 -2.851282957746479
C 2.344694507042253 -3.565079295774647 -3.101282957746479
H 1.6334345070422536 -4.047909295774646 -2.4251929577464786
H 1.8561845070422536 -3.293109295774647 -4.041792957746479
H 3.1808045070422537 -4.243519295774647 -3.298122957746479
C 3.5156645070422536 -2.648489295774647 -1.1110629577464786
H 3.9311845070422535 -1.748249295774647 -0.6771029577464787
H 2.767184507042254 -3.1044092957746465 -0.45972295774647876
H 4.319224507042254 -3.371819295774647 -1.2863129577464787
C 2.963994507042253 3.381090704225353 2.401027042253521
H 3.3337945070422537 4.369820704225353 2.6912870422535216
H 3.120994507042253 2.671350704225353 3.2183370422535216
H 3.4665445070422534 3.0664207042253535 1.4881370422535212
C 1.2973745070422538 4.282440704225354 0.8488370422535213
H 1.7592145070422538 3.7367207042253527 0.02653704225352116
H 0.23311450704225378 4.4484607042253534 0.6605570422535213
H 1.7921845070422535 5.251370704225354 0.9736770422535213
C 0.7724845070422537 4.194670704225353 3.2772470422535216
H -0.2956954929577462 4.278220704225354 3.057857042253521
H 0.9298945070422537 3.612620704225354 4.190337042253521
H 1.2046345070422537 5.193640704225353 3.3918370422535213
N 2.876084507042253 -2.324759295774647 -2.4576629577464786
N 1.4527845070422536 3.504690704225353 2.1388470422535213
C -3.593905492957746 -3.637819295774647 0.8297870422535213
H -2.8952554929577463 -1.8680692957746468 1.7595270422535212
H -5.022615492957747 -1.2402792957746467 1.1579970422535213
H -4.898275492957747 -1.7933092957746464 -0.48931295774647876
H -3.883675492957746 0.07871070422535364 -1.2758929577464788
H -3.8751654929577466 -4.038529295774646 -0.1505529577464788
H -4.4603554929577465 -3.7321892957746465 1.4932570422535212
H -2.7953554929577464 -4.271929295774647 1.2313670422535212
H -5.648775492957746 1.147700704225353 0.9733970422535213
H -6.189795492957747 0.5254307042253537 -0.5943629577464788
H -5.2178854929577465 2.002970704225354 -0.5139729577464787
C 3.6710445070422537 1.0263707042253536 -0.27764295774647874
O 2.7356545070422538 1.6631507042253526 -0.7327029577464788
O 3.650814507042253 0.3883007042253537 0.7790570422535212
O 4.756604507042254 0.8696707042253538 -0.8334829577464786
O 7.038791078479415 2.9417886709756127 -1.504238504883728
H 7.2040877754434 2.9583234873158317 -0.5495809962863286
H 6.3014079766278925 3.558787228518561 -1.6248240985247087
O 6.8492625416108766 7.575647299722643 5.972655603629181
H 6.851070286236302 6.632902890194135 6.1967026238327865
H 6.289150356313302 7.977053776482047 6.653911153769343
O 5.808395702855334 4.617519541198284 0.17761138833600232
H 5.8211625164778935 4.204438771362291 -0.6988409166764447
H 5.29906543029985 5.431204269728683 0.04546835857293041
O -6.880570646810025 12.13967195700359 -3.2295418312412867
H -7.758002657522326 12.53230069354214 -3.351701966807321
H -7.046948267227428 11.185197540682681 -3.2456359392657204
O 0.7061874819445612 6.1141180293768596 -6.458826477061045
H -0.2460745210685794 6.28956489009736 -6.496012947459891
H 0.7683518725706678 5.1483686880135995 -6.508078304382624
O -0.5538058821283715 -7.132182471672731 6.935936041770348
H -1.5150428587385367 -7.05906298770747 6.837730274312404
H -0.4021180017158731 -8.081988209388994 7.05350215864604
O 1.081927408104467 -6.1932303307933285 9.261190695166558
H 0.4672850438278302 -5.497464138882779 8.98353708519413
H 1.2737294630479807 -5.980368413377498 10.186860031448958
O -11.825636479270562 -6.342571202763455 7.122033283606255
H -11.710024012001433 -6.315127861868945 6.160343116581296
H -11.16103650491898 -5.721226396493011 7.4554990991145615
O 2.386361060587279 -7.619542448412821 -10.18500199824495
H 2.8506804371042045 -7.9200728642068166 -10.9806503770365
H 1.9309425637886464 -6.813211008581652 -10.470283519226363
O -11.816128952502531 -4.5571447566035115 -6.226392070233552
H -10.957211596924408 -4.547858273405263 -6.674880748369905
H -11.655853147856359 -4.070933995580756 -5.4036693304173395
O -12.14282401709844 2.749415628128604 1.4533965454757052
H -12.980138935333386 2.6807859810704993 0.9705290106942881
H -11.550243463990922 2.1452340420389375 0.9814062453540151
O 3.7025807647155133 4.629090068817264 -11.289782533594268
H 4.091411908504542 3.749661790068867 -11.40971418520196
H 2.7486149712032324 4.461380685813377 -11.261768751969175
O -8.941656547686032 -5.320111394073309 -0.7817254562742435
H -8.18273699930157 -5.72063666953801 -0.3316277116744153
H -8.730106577177427 -5.410770321922987 -1.722995615728454
O 1.1724536026784582 2.094800954158838 12.157583287199785
H 0.796242642287063 1.2094411761252817 12.041089795442698
H 0.4678464810526046 2.5922708789910143 12.599187660300416
O 5.383336170859019 7.664333563040244 0.7999109673454985
H 5.70621903167181 6.772451296517052 0.6017695083955781
H 4.490212850206802 7.51834589557968 1.1462926633927633
O -3.2408023266858126 6.464974521606321 0.18772303966119686
H -3.797009317655028 5.877419061538684 -0.34554961240496596
H -2.481223423326076 6.651197788993707 -0.38439821370594207
O -4.601640284956212 6.885653078236528 9.88982046639607
H -4.994462905986541 7.740332754997956 10.122587292721992
H -4.440824970005388 6.461060020382433 10.745870181073538
O -1.7808944910739801 2.416540856134503 8.279110229736666
H -2.2610964651021757 1.5768200687119551 8.222167976445435
H -1.572245760683677 2.5034200413446377 9.221383894222594
O 1.8829137782562744 6.215513556865327 -14.097757669512422
H 2.6345462222111733 5.705872833403413 -13.75970093006828
H 1.3137435106249304 6.335209828702796 -13.322722216611925
O 10.213142211260134 4.231996116507258 5.444247464574698
H 10.220988972528767 3.8526544379371015 4.55261655655436
H 11.151104512395436 4.300765429122162 5.6776129452941975
O 6.849809843332383 0.6943274155154091 -5.722769677370913
H 6.268562329969448 1.209561292531713 -5.143414227682077
H 7.406855537888677 0.19238918158063267 -5.108994435290612
O 1.9030131973614985 -5.813568918238936 7.681124397268253
H 1.8880866523862228 -5.883783495346122 6.714783635260999
H 2.4635697487275023 -5.041653760866922 7.851081117759065
O -4.490070248717789 -13.481894138484408 1.688717528569387
H -4.558713178458768 -13.288882614695568 2.635819453803037
H -3.9122133196021167 -12.782363722136665 1.3485697513057964
O 4.267001703570276 -13.06402747831174 -4.088860050463641
H 3.6909775975935672 -13.816126080181354 -4.292603220409301
H 5.099815990818106 -13.27947466222898 -4.534914776027693
C -5.148019076436417 -2.5636004712848743 -8.05602063872943
O -6.159132084242253 -2.484699934347609 -7.4202192168870065
O -4.136906068630581 -2.6425010082221396 -8.691822060571853