146

C -5.3564454929577465 1.0091607042253532 -0.0734429577464788
C -4.079135492957747 0.16955070422535368 -0.19788295774647868
C -4.333545492957747 -1.2789292957746463 0.3017270422535212
C -3.1403854929577464 -2.1745492957746464 0.7330270422535212
C -2.905235492957746 0.902300704225353 0.41966704225352136
C -2.7423854929577463 1.056130704225354 1.8024770422535212
C -1.8861754929577463 1.3499307042253532 -0.4326129577464788
C -1.5304554929577463 1.5279207042253526 2.3254170422535214
H -3.5237954929577464 0.7301007042253529 2.484817042253521
C -0.6776454929577462 1.8010507042253527 0.08546704225352131
H -1.9759254929577463 1.2426607042253535 -1.5115229577464788
C -0.4680254929577463 1.8513207042253539 1.4698070422535212
H -1.3950654929577464 1.5446707042253527 3.404047042253521
H 0.1461845070422536 1.9972507042253538 -0.6030529577464789
C -1.8679654929577463 -2.0866092957746467 -0.08765295774647863
C -0.6628654929577462 -1.814079295774647 0.5787970422535212
C -1.8438954929577462 -2.213429295774647 -1.4808029577464787
C 0.5129345070422537 -1.5763292957746469 -0.13022295774647863
H -0.6401854929577462 -1.7032692957746463 1.6609470422535213
C -0.6547954929577462 -1.9962392957746466 -2.1933129577464787
H -2.7578654929577464 -2.4351492957746466 -2.026182957746479
C 0.5308845070422537 -1.645769295774647 -1.5261029577464789
H 1.4044045070422537 -1.2610992957746463 0.41551704225352126
H -0.6795654929577464 -2.0467992957746466 -3.2793129577464786
C 1.7843245070422535 -1.2521692957746469 -2.2771629577464787
H 1.4981245070422535 -0.9384492957746469 -3.290282957746479
H 2.241984507042254 -0.38631929577464685 -1.8135029577464787
C 0.9385645070422537 2.0647807042253534 1.9815670422535212
H 1.0508945070422537 1.5807407042253532 2.9609770422535213
H 1.6053245070422537 1.5496207042253536 1.3096170422535214
C 3.9676945070422533 -1.6881692957746468 -3.314052957746479
H 4.795084507042254 -2.398849295774647 -3.4044129577464783
H 3.548404507042253 -1.4816192957746468 -4.303802957746479
H 4.307714507042253 -0.7637192957746466 -2.851282957746479
C 2.344694507042253 -3.565079295774647 -3.101282957746479
H 1.6334345070422536 -4.047909295774646 -2.4251929577464786
H 1.8561845070422536 -3.293109295774647 -4.041792957746479
H 3.1808045070422537 -4.243519295774647 -3.298122957746479
C 3.5156645070422536 -2.648489295774647 -1.1110629577464786
H 3.9311845070422535 -1.748249295774647 -0.6771029577464787
H 2.767184507042254 -3.1044092957746465 -0.45972295774647876
H 4.319224507042254 -3.371819295774647 -1.2863129577464787
C 2.963994507042253 3.381090704225353 2.401027042253521
H 3.3337945070422537 4.369820704225353 2.6912870422535216
H 3.120994507042253 2.671350704225353 3.2183370422535216
H 3.4665445070422534 3.0664207042253535 1.4881370422535212
C 1.2973745070422538 4.282440704225354 0.8488370422535213
H 1.7592145070422538 3.7367207042253527 0.02653704225352116
H 0.23311450704225378 4.4484607042253534 0.6605570422535213
H 1.7921845070422535 5.251370704225354 0.9736770422535213
C 0.7724845070422537 4.194670704225353 3.2772470422535216
H -0.2956954929577462 4.278220704225354 3.057857042253521
H 0.9298945070422537 3.612620704225354 4.190337042253521
H 1.2046345070422537 5.193640704225353 3.3918370422535213
N 2.876084507042253 -2.324759295774647 -2.4576629577464786
N 1.4527845070422536 3.504690704225353 2.1388470422535213
C -3.593905492957746 -3.637819295774647 0.8297870422535213
H -2.8952554929577463 -1.8680692957746468 1.7595270422535212
H -5.022615492957747 -1.2402792957746467 1.1579970422535213
H -4.898275492957747 -1.7933092957746464 -0.48931295774647876
H -3.883675492957746 0.07871070422535364 -1.2758929577464788
H -3.8751654929577466 -4.038529295774646 -0.1505529577464788
H -4.4603554929577465 -3.7321892957746465 1.4932570422535212
H -2.7953554929577464 -4.271929295774647 1.2313670422535212
H -5.648775492957746 1.147700704225353 0.9733970422535213
H -6.189795492957747 0.5254307042253537 -0.5943629577464788
H -5.2178854929577465 2.002970704225354 -0.5139729577464787
C 3.6710445070422537 1.0263707042253536 -0.27764295774647874
O 2.7356545070422538 1.6631507042253526 -0.7327029577464788
O 3.650814507042253 0.3883007042253537 0.7790570422535212
O 4.756604507042254 0.8696707042253538 -0.8334829577464786
O -1.9506676256204325 1.0999628629497273 -11.956654218913854
H -1.1476543652551148 1.6396610033489498 -12.01016102060377
H -1.6347287870874858 0.2412702221709866 -11.63760634902771
O 5.652308081879829 0.5229156541690643 0.3561162413413137
H 6.227559297405154 1.0137475871305965 0.9620348906019904
H 5.180567186121705 -0.09730866560451168 0.9320886927057233
O 2.384576953480237 0.12900954820493982 4.15670113514312
H 3.2706793382134953 0.16703445764969738 4.5470138647994185
H 2.3609906485284204 0.8883461025753903 3.5551916774323282
O 0.09047690860415325 2.351534061178774 -7.488036292082073
H -0.6133593185328032 2.90303242722149 -7.861441533772425
H 0.2164495289301156 1.6538277130382324 -8.14856539438764
O -2.446811000303151 11.666516514729974 -7.321315012937953
H -2.4626419769427375 11.777130676177503 -8.283853970261706
H -1.57530971061103 11.2816880837602 -7.144242922866386
O -2.806665667223938 -11.37456557089531 7.595720110362804
H -2.7223261284479596 -11.381627077715176 8.561020236862582
H -2.282898369529361 -10.607136438104853 7.320615969517548
O 7.851352933364314 5.499881298611588 1.6316365427027437
H 7.662340006835881 5.171876823874351 2.523631237225927
H 7.67069651744351 6.450190389807995 1.688538518732659
O 3.9767176278029375 11.591920664690873 -3.047985299485804
H 4.664299956115433 11.05084805801828 -2.631526018161816
H 3.670401649366873 12.171244074787918 -2.334180807927864
O -1.7525952344613724 12.471994652441106 6.366646629168172
H -1.9369684644913425 12.333266902809969 5.425515139720179
H -1.3169511257666855 11.651811901858572 6.643190315602124
O 6.560453026998484 3.7580014479824446 -1.0580981211903557
H 6.708386407337898 3.080910232144741 -1.7353208004597194
H 7.300896688953945 3.640670510076421 -0.44414488292209786
O -4.00983170706607 9.471215051028942 1.0121909889951008
H -4.185553998443449 8.604235515904683 1.4077102917968844
H -3.0426696469282595 9.525729474041938 0.9879490539744291
O -2.0860984722705482 -9.830376636559372 2.5641529282270725
H -2.012207570704349 -10.502382486043652 1.869951495050326
H -2.9056983036699604 -9.36046683057728 2.348739755668087
O -1.0975746387760106 6.737048372097727 1.825902453222184
H -0.5292509603961837 7.104077671839072 1.1321697621774263
H -1.1372165677293649 5.791037815773559 1.6198575816720837
O 1.5407415521966805 3.8774909039837695 -2.854311985230591
H 1.6064798387109032 3.4326057808204067 -1.9959862534864614
H 0.8475655688636272 3.38610556446803 -3.320154714635328
O 3.179826444385802 4.186737831076015 -0.32704838766862104
H 3.6766962762892055 4.914094628433593 -0.7308302797613847
H 3.644330946014314 3.391027971911327 -0.6271205994693149
O -7.802623339799082 8.412540264049031 11.000119738311367
H -8.719585865350965 8.657892396871365 11.194925833064705
H -7.79269183333509 7.448434005022445 11.096879393049882
O -3.5368981385532634 5.4190194294796425 0.8612856118859678
H -4.277412915008425 5.39399730890791 1.4857686911072205
H -3.917707742183567 5.8135256863397045 0.06234205732082021
O 7.733214941656771 -7.5056652284945296 -2.1663063929127446
H 7.823184854665675 -7.357535980764821 -1.2129279278632124
H 6.866857031550712 -7.128475463000141 -2.3810476248710026
O -1.6994913287052644 -9.6335088751189 5.887116017607312
H -1.1008626842069904 -9.626472849102008 6.649061945625862
H -1.195267011627044 -9.188949035875632 5.189200312311177
O -2.206431085850806 12.342280382747138 3.3242264411451288
H -2.5127609901227412 12.913371314363598 2.6038206565527275
H -2.2739675812032063 12.90256832871762 4.111930816971295
O -4.670612666401155 -0.04201634388869757 -4.321756662141956
H -3.810150442852053 -0.4873510473165652 -4.337540219020767
H -5.269402764881914 -0.7031133998934803 -3.94312353521932
O 3.61658222866311 -6.636392410223168 5.858161294416481
H 3.8048120979500126 -5.781563317127946 6.273858413490259
H 3.80101139310041 -7.282055433488466 6.556779278720403
O 0.27054062463624007 -13.333415747546393 -4.000946811208303
H 0.09957396007727315 -13.164590826856998 -3.062205152036941
H -0.5528421052754311 -13.071533550419307 -4.439604467258092
O -1.814387845223921 -1.0759588342746076 5.90202806758105
H -1.6727421144686758 -0.6602785975477508 5.038249285337866
H -2.0497650392914917 -0.33622405260898036 6.481986664040299
C 4.344707163851437 -8.514912393429505 -2.2798851489143375
O 4.6461942502668245 -8.315898298886388 -3.4210762740979965
O 4.04322007743605 -8.713926487972621 -1.1386940237306789