146

C -5.3564454929577465 1.0091607042253532 -0.0734429577464788
C -4.079135492957747 0.16955070422535368 -0.19788295774647868
C -4.333545492957747 -1.2789292957746463 0.3017270422535212
C -3.1403854929577464 -2.1745492957746464 0.7330270422535212
C -2.905235492957746 0.902300704225353 0.41966704225352136
C -2.7423854929577463 1.056130704225354 1.8024770422535212
C -1.8861754929577463 1.3499307042253532 -0.4326129577464788
C -1.5304554929577463 1.5279207042253526 2.3254170422535214
H -3.5237954929577464 0.7301007042253529 2.484817042253521
C -0.6776454929577462 1.8010507042253527 0.08546704225352131
H -1.9759254929577463 1.2426607042253535 -1.5115229577464788
C -0.4680254929577463 1.8513207042253539 1.4698070422535212
H -1.3950654929577464 1.5446707042253527 3.404047042253521
H 0.1461845070422536 1.9972507042253538 -0.6030529577464789
C -1.8679654929577463 -2.0866092957746467 -0.08765295774647863
C -0.6628654929577462 -1.814079295774647 0.5787970422535212
C -1.8438954929577462 -2.213429295774647 -1.4808029577464787
C 0.5129345070422537 -1.5763292957746469 -0.13022295774647863
H -0.6401854929577462 -1.7032692957746463 1.6609470422535213
C -0.6547954929577462 -1.9962392957746466 -2.1933129577464787
H -2.7578654929577464 -2.4351492957746466 -2.026182957746479
C 0.5308845070422537 -1.645769295774647 -1.5261029577464789
H 1.4044045070422537 -1.2610992957746463 0.41551704225352126
H -0.6795654929577464 -2.0467992957746466 -3.2793129577464786
C 1.7843245070422535 -1.2521692957746469 -2.2771629577464787
H 1.4981245070422535 -0.9384492957746469 -3.290282957746479
H 2.241984507042254 -0.38631929577464685 -1.8135029577464787
C 0.9385645070422537 2.0647807042253534 1.9815670422535212
H 1.0508945070422537 1.5807407042253532 2.9609770422535213
H 1.6053245070422537 1.5496207042253536 1.3096170422535214
C 3.9676945070422533 -1.6881692957746468 -3.314052957746479
H 4.795084507042254 -2.398849295774647 -3.4044129577464783
H 3.548404507042253 -1.4816192957746468 -4.303802957746479
H 4.307714507042253 -0.7637192957746466 -2.851282957746479
C 2.344694507042253 -3.565079295774647 -3.101282957746479
H 1.6334345070422536 -4.047909295774646 -2.4251929577464786
H 1.8561845070422536 -3.293109295774647 -4.041792957746479
H 3.1808045070422537 -4.243519295774647 -3.298122957746479
C 3.5156645070422536 -2.648489295774647 -1.1110629577464786
H 3.9311845070422535 -1.748249295774647 -0.6771029577464787
H 2.767184507042254 -3.1044092957746465 -0.45972295774647876
H 4.319224507042254 -3.371819295774647 -1.2863129577464787
C 2.963994507042253 3.381090704225353 2.401027042253521
H 3.3337945070422537 4.369820704225353 2.6912870422535216
H 3.120994507042253 2.671350704225353 3.2183370422535216
H 3.4665445070422534 3.0664207042253535 1.4881370422535212
C 1.2973745070422538 4.282440704225354 0.8488370422535213
H 1.7592145070422538 3.7367207042253527 0.02653704225352116
H 0.23311450704225378 4.4484607042253534 0.6605570422535213
H 1.7921845070422535 5.251370704225354 0.9736770422535213
C 0.7724845070422537 4.194670704225353 3.2772470422535216
H -0.2956954929577462 4.278220704225354 3.057857042253521
H 0.9298945070422537 3.612620704225354 4.190337042253521
H 1.2046345070422537 5.193640704225353 3.3918370422535213
N 2.876084507042253 -2.324759295774647 -2.4576629577464786
N 1.4527845070422536 3.504690704225353 2.1388470422535213
C -3.593905492957746 -3.637819295774647 0.8297870422535213
H -2.8952554929577463 -1.8680692957746468 1.7595270422535212
H -5.022615492957747 -1.2402792957746467 1.1579970422535213
H -4.898275492957747 -1.7933092957746464 -0.48931295774647876
H -3.883675492957746 0.07871070422535364 -1.2758929577464788
H -3.8751654929577466 -4.038529295774646 -0.1505529577464788
H -4.4603554929577465 -3.7321892957746465 1.4932570422535212
H -2.7953554929577464 -4.271929295774647 1.2313670422535212
H -5.648775492957746 1.147700704225353 0.9733970422535213
H -6.189795492957747 0.5254307042253537 -0.5943629577464788
H -5.2178854929577465 2.002970704225354 -0.5139729577464787
C 3.6710445070422537 1.0263707042253536 -0.27764295774647874
O 2.7356545070422538 1.6631507042253526 -0.7327029577464788
O 3.650814507042253 0.3883007042253537 0.7790570422535212
O 4.756604507042254 0.8696707042253538 -0.8334829577464786
O -12.626378182928848 -9.784263884740731 3.0820781895547213
H -13.167570813436932 -10.382967543591182 2.545765013823578
H -11.996437968857602 -9.407949685919474 2.44920782782067
O 8.215384320015167 10.495370208260876 -2.1950657393822626
H 7.924646607535344 11.419646035991683 -2.207440460168464
H 7.797188926042862 10.129065232571032 -1.4014063530298988
O 10.752407725150773 -10.413137892315536 -2.848993668025418
H 11.25898628636115 -10.755187760978602 -3.600889542179281
H 9.958864619489106 -10.033027009974536 -3.254908684848864
O 7.7273138535686465 6.989615233018336 -4.516841285409343
H 8.286376379101862 6.26394003794756 -4.832771595293367
H 6.903047897988136 6.884130183075544 -5.015259265632281
O 3.3473527448751104 2.27720167008767 -9.835687144565433
H 3.7872309475914174 3.1219209996498254 -10.014359408610911
H 3.7544303746101653 1.6635140317970758 -10.465478562638596
O 0.5190347668582301 7.693458488471656 -3.3646666986699527
H -0.12198010964894257 8.296355641089397 -3.7703541502406357
H 0.6299061188478094 6.991729875442299 -4.0236404775594465
O -4.594547041096408 -12.1862529215178 -3.6849740705520357
H -3.907167443789005 -12.858999387126165 -3.8028249895852264
H -4.506448458405392 -11.921675515886744 -2.756965783704676
O -11.690572319287625 3.580190664844147 5.69001549566855
H -12.183277082781737 2.749625735332231 5.769835736178573
H -11.00601982759714 3.384017710257836 5.032850370065232
O 6.067485069802876 12.187508844064883 6.360467467408938
H 6.277345615422133 12.440965767131612 7.271886962724863
H 5.340048354396272 11.554399664247002 6.455180379985743
O 4.595231236309647 -7.794966135781616 -1.5744437353004397
H 4.706183079956011 -6.881683654085828 -1.2701870115964984
H 3.8035612761848125 -7.761313581114431 -2.132196479892804
O -9.138516003648043 -8.501721597468071 0.7329591631509418
H -8.500466624830946 -8.346053591018453 1.445439211193774
H -8.973494457841625 -9.418845865367572 0.4672282636502185
O 9.934690468931311 11.082432080463317 2.070487326416413
H 9.98611245904469 11.840753065649135 2.6715467405009026
H 8.984525888135206 10.908321156943726 1.9941027729273713
O -2.538385357791758 1.5610698741758735 6.224025954960039
H -2.4054617894953703 1.5321726805996945 7.183433915159857
H -1.6550041553740624 1.3987787679737556 5.86034863594941
O -3.188627379251817 6.2983884845758435 -7.553898002811067
H -3.3185851689571684 5.8427132076251045 -8.399142566100751
H -4.088678215996238 6.444908722157524 -7.226175169376052
O 6.258857804762365 -2.0495228460504435 -0.16227730462596923
H 6.124128400587624 -1.1207424633346486 0.07893286355319717
H 6.9657520299225295 -2.019229401024268 -0.8243534376527202
O -7.335571834954267 0.44409678023602783 4.940167758903321
H -7.177333011537965 0.30156033558024653 5.885477863371012
H -6.446509364907985 0.5287518841837966 4.564184538492096
O 1.6297079341642746 -8.509889766063665 -0.9776466992071944
H 2.1408387132633897 -8.92570682826773 -1.688145717037279
H 1.7763359369749696 -9.088499998264163 -0.21431690659810654
O 6.183694192562878 4.56447551633884 -0.33710507288632785
H 5.81534409677931 5.29616926910485 0.18049498120894647
H 5.898109176623018 4.7521635007404015 -1.2438444861037685
O 4.038120042400024 -4.564667702800287 6.327440585357962
H 3.620751002219014 -5.333225322477204 6.744681075285455
H 3.294586350021247 -4.069810725163854 5.951626583114675
O 2.3364079681476095 3.5801282883905734 9.18585511727628
H 2.450394975956426 4.0114329175635675 8.325651283406225
H 1.3928529994523258 3.3614361839934013 9.214833192174005
O 5.984463077128474 10.122611613400318 2.045808137175365
H 6.578176910043376 10.043645073279995 2.807540063148617
H 5.3202511091914735 9.432868335006622 2.1942622238822382
O 5.319478090566786 -8.421406595024065 6.175140265084401
H 5.359871874195057 -7.897713702135319 6.989438400340777
H 6.08212517002005 -8.115115982672982 5.661800769928412
O 6.202987983297975 -0.18900670970312605 6.499400018027039
H 6.370896116835118 -0.6799895258720559 7.3177581852245694
H 5.4943535572219195 -0.6892762823986729 6.067509350016172
O 9.456695337465858 -5.431295841770487 11.413779375500983
H 9.372863059625566 -5.255659809651473 12.36303776514713
H 8.967516216323421 -4.705822340077262 10.997421440450765
C -3.2876994924309755 -9.093022672801268 3.8650576763572255
O -3.4994108418187815 -8.833089959053074 2.715957356035325
O -3.075988143043169 -9.352955386549464 5.014157996679126