146

C -5.3564454929577465 1.0091607042253532 -0.0734429577464788
C -4.079135492957747 0.16955070422535368 -0.19788295774647868
C -4.333545492957747 -1.2789292957746463 0.3017270422535212
C -3.1403854929577464 -2.1745492957746464 0.7330270422535212
C -2.905235492957746 0.902300704225353 0.41966704225352136
C -2.7423854929577463 1.056130704225354 1.8024770422535212
C -1.8861754929577463 1.3499307042253532 -0.4326129577464788
C -1.5304554929577463 1.5279207042253526 2.3254170422535214
H -3.5237954929577464 0.7301007042253529 2.484817042253521
C -0.6776454929577462 1.8010507042253527 0.08546704225352131
H -1.9759254929577463 1.2426607042253535 -1.5115229577464788
C -0.4680254929577463 1.8513207042253539 1.4698070422535212
H -1.3950654929577464 1.5446707042253527 3.404047042253521
H 0.1461845070422536 1.9972507042253538 -0.6030529577464789
C -1.8679654929577463 -2.0866092957746467 -0.08765295774647863
C -0.6628654929577462 -1.814079295774647 0.5787970422535212
C -1.8438954929577462 -2.213429295774647 -1.4808029577464787
C 0.5129345070422537 -1.5763292957746469 -0.13022295774647863
H -0.6401854929577462 -1.7032692957746463 1.6609470422535213
C -0.6547954929577462 -1.9962392957746466 -2.1933129577464787
H -2.7578654929577464 -2.4351492957746466 -2.026182957746479
C 0.5308845070422537 -1.645769295774647 -1.5261029577464789
H 1.4044045070422537 -1.2610992957746463 0.41551704225352126
H -0.6795654929577464 -2.0467992957746466 -3.2793129577464786
C 1.7843245070422535 -1.2521692957746469 -2.2771629577464787
H 1.4981245070422535 -0.9384492957746469 -3.290282957746479
H 2.241984507042254 -0.38631929577464685 -1.8135029577464787
C 0.9385645070422537 2.0647807042253534 1.9815670422535212
H 1.0508945070422537 1.5807407042253532 2.9609770422535213
H 1.6053245070422537 1.5496207042253536 1.3096170422535214
C 3.9676945070422533 -1.6881692957746468 -3.314052957746479
H 4.795084507042254 -2.398849295774647 -3.4044129577464783
H 3.548404507042253 -1.4816192957746468 -4.303802957746479
H 4.307714507042253 -0.7637192957746466 -2.851282957746479
C 2.344694507042253 -3.565079295774647 -3.101282957746479
H 1.6334345070422536 -4.047909295774646 -2.4251929577464786
H 1.8561845070422536 -3.293109295774647 -4.041792957746479
H 3.1808045070422537 -4.243519295774647 -3.298122957746479
C 3.5156645070422536 -2.648489295774647 -1.1110629577464786
H 3.9311845070422535 -1.748249295774647 -0.6771029577464787
H 2.767184507042254 -3.1044092957746465 -0.45972295774647876
H 4.319224507042254 -3.371819295774647 -1.2863129577464787
C 2.963994507042253 3.381090704225353 2.401027042253521
H 3.3337945070422537 4.369820704225353 2.6912870422535216
H 3.120994507042253 2.671350704225353 3.2183370422535216
H 3.4665445070422534 3.0664207042253535 1.4881370422535212
C 1.2973745070422538 4.282440704225354 0.8488370422535213
H 1.7592145070422538 3.7367207042253527 0.02653704225352116
H 0.23311450704225378 4.4484607042253534 0.6605570422535213
H 1.7921845070422535 5.251370704225354 0.9736770422535213
C 0.7724845070422537 4.194670704225353 3.2772470422535216
H -0.2956954929577462 4.278220704225354 3.057857042253521
H 0.9298945070422537 3.612620704225354 4.190337042253521
H 1.2046345070422537 5.193640704225353 3.3918370422535213
N 2.876084507042253 -2.324759295774647 -2.4576629577464786
N 1.4527845070422536 3.504690704225353 2.1388470422535213
C -3.593905492957746 -3.637819295774647 0.8297870422535213
H -2.8952554929577463 -1.8680692957746468 1.7595270422535212
H -5.022615492957747 -1.2402792957746467 1.1579970422535213
H -4.898275492957747 -1.7933092957746464 -0.48931295774647876
H -3.883675492957746 0.07871070422535364 -1.2758929577464788
H -3.8751654929577466 -4.038529295774646 -0.1505529577464788
H -4.4603554929577465 -3.7321892957746465 1.4932570422535212
H -2.7953554929577464 -4.271929295774647 1.2313670422535212
H -5.648775492957746 1.147700704225353 0.9733970422535213
H -6.189795492957747 0.5254307042253537 -0.5943629577464788
H -5.2178854929577465 2.002970704225354 -0.5139729577464787
C 3.6710445070422537 1.0263707042253536 -0.27764295774647874
O 2.7356545070422538 1.6631507042253526 -0.7327029577464788
O 3.650814507042253 0.3883007042253537 0.7790570422535212
O 4.756604507042254 0.8696707042253538 -0.8334829577464786
O -0.5745556180281195 3.475124518883995 -8.739067141011077
H -0.09130735721247785 2.715650477670148 -8.380406220306064
H -1.5016540162511203 3.279837786477803 -8.535809677535667
O 7.400284546755209 -8.503344376016054 2.1345941798809336
H 6.710657526413799 -8.566636468837947 2.8123670332036763
H 7.9191757384151655 -7.729290133229663 2.4002140299337786
O -4.4216735004011625 -1.765766959199586 8.36444920294958
H -4.29209961725776 -1.441102623000738 9.268203060207021
H -3.9131094882675663 -1.1475124814055873 7.818476684822295
O 5.056247311044265 5.1189694069142835 -1.1450147313192272
H 4.180006199093541 5.410710476729507 -0.8516616696163886
H 4.957094719451099 4.162290962292697 -1.2629005297717204
O 4.302849485749016 0.9477816076539001 8.574160942723314
H 3.7512578839468196 0.30951259714107904 8.097373010891694
H 4.952462191840765 1.234327674740963 7.914724343935308
O 0.4286710131438791 12.958670832244348 5.044799016690753
H 1.0898739919291405 12.611970874172705 4.427079730268012
H 0.47630147077891505 13.918930505581876 4.923990724064856
O -13.281586864675896 -4.978477651104384 0.9358889172259632
H -14.111628244569431 -4.49368260679564 0.813527037630575
H -12.933897937641277 -4.6393778421019105 1.774390958876431
O -0.11415377326293275 4.858849933705756 -10.297559926031228
H -0.28898756490082267 4.525980539326321 -11.190643611072549
H 0.7724757244036913 4.525677947483816 -10.092995741080987
O 10.962560411608637 0.16292358863425882 -5.645112188344349
H 10.942227690322502 0.171732396306699 -6.613862074668209
H 10.037661260838483 0.02187778918167016 -5.392863129552393
O 10.29699709433075 -6.804616374878291 0.06355167925661134
H 10.259835705111295 -6.871153558883152 -0.9024499724997324
H 9.891456755686104 -7.629318041250125 0.37074240098418587
O -0.3426234752820396 -7.8350774562715575 -2.886016301720323
H -0.3778548920586622 -7.684371742281193 -3.8425798866129153
H -0.9329737459546736 -7.159082162777229 -2.5206687064220046
O -9.09265438620988 2.937384498855126 1.1926534457951825
H -8.610873472387386 3.7226462479068436 0.8922895107886624
H -8.397971719051466 2.2772478577575015 1.3361719161396506
O -6.80522386277905 -5.072531553235937 -13.489604905939888
H -7.343282645193108 -4.945487198735064 -12.693790960625686
H -6.640835145293473 -6.027245478244236 -13.511043545325242
O -2.898880367060374 -4.079200628490208 3.004582381389346
H -2.108085046082123 -4.303081932683357 3.5178925009580917
H -3.6284999994233953 -4.214665124662012 3.627692730081589
O 3.1802215382078445 10.486833515229135 -4.96841849590087
H 4.08931254307522 10.508769878007667 -4.633695180672793
H 3.1329040550182046 11.247125690512902 -5.567316490793886
O 12.016150018766012 -0.5559555300547068 2.03694962759964
H 12.207277354026672 -0.8619949680356376 1.1376290167958638
H 11.607883549246374 0.31312268422015244 1.9066289015473745
O -2.02050144274036 2.5329556814785974 9.663812116028112
H -1.9581907382727266 1.565972179668854 9.658554717763332
H -2.7678308939517513 2.7161437343920167 10.252796642923233
O 7.673932426947216 13.787303250298573 -5.853742305937301
H 7.6826703163976715 14.254012106929794 -6.702902979384871
H 6.843863812734698 14.068722385103662 -5.440521649913348
O -10.174099777331236 -7.89252340221863 -0.8150112505842051
H -9.723307408377464 -8.078722367584795 0.022296065930835107
H -9.928269676434763 -8.637445108158662 -1.383888353140304
O -0.028716019265629278 -9.317906875459807 -13.696966853868592
H 0.3204529548177346 -10.197311900708813 -13.90600078892308
H 0.44908951744253134 -9.061150829564003 -12.894009727810804
O -5.964150840572586 7.934485051411695 -10.633299221980607
H -6.029764412902978 7.96447472696714 -11.599613267923294
H -6.874100329612078 8.077300264121384 -10.33237117955941
O -2.3380486431245338 -7.188000308567453 9.932644059250524
H -2.372650534846305 -7.163747124089935 10.900725589407966
H -3.11014198312034 -6.67098757899773 9.65781382784032
O -2.0124767062927003 5.986981780628444 -9.899905192945544
H -2.2691547735620246 6.175746407476269 -10.815029032834927
H -2.58146886928845 6.567712544842688 -9.372684515956719
O -2.9939758169841015 10.401657504043456 1.785894573185554
H -2.950303223215431 10.72645706935361 0.8739925478408068
H -3.642430032699168 9.682636390206081 1.74745354981963
C -4.906400401513195 7.749501663100923 -5.010385007980755
O -4.307714056851537 7.011351221316196 -4.282699056962959
O -5.505086746174852 8.487652104885651 -5.738070958998552