146

C -5.3564454929577465 1.0091607042253532 -0.0734429577464788
C -4.079135492957747 0.16955070422535368 -0.19788295774647868
C -4.333545492957747 -1.2789292957746463 0.3017270422535212
C -3.1403854929577464 -2.1745492957746464 0.7330270422535212
C -2.905235492957746 0.902300704225353 0.41966704225352136
C -2.7423854929577463 1.056130704225354 1.8024770422535212
C -1.8861754929577463 1.3499307042253532 -0.4326129577464788
C -1.5304554929577463 1.5279207042253526 2.3254170422535214
H -3.5237954929577464 0.7301007042253529 2.484817042253521
C -0.6776454929577462 1.8010507042253527 0.08546704225352131
H -1.9759254929577463 1.2426607042253535 -1.5115229577464788
C -0.4680254929577463 1.8513207042253539 1.4698070422535212
H -1.3950654929577464 1.5446707042253527 3.404047042253521
H 0.1461845070422536 1.9972507042253538 -0.6030529577464789
C -1.8679654929577463 -2.0866092957746467 -0.08765295774647863
C -0.6628654929577462 -1.814079295774647 0.5787970422535212
C -1.8438954929577462 -2.213429295774647 -1.4808029577464787
C 0.5129345070422537 -1.5763292957746469 -0.13022295774647863
H -0.6401854929577462 -1.7032692957746463 1.6609470422535213
C -0.6547954929577462 -1.9962392957746466 -2.1933129577464787
H -2.7578654929577464 -2.4351492957746466 -2.026182957746479
C 0.5308845070422537 -1.645769295774647 -1.5261029577464789
H 1.4044045070422537 -1.2610992957746463 0.41551704225352126
H -0.6795654929577464 -2.0467992957746466 -3.2793129577464786
C 1.7843245070422535 -1.2521692957746469 -2.2771629577464787
H 1.4981245070422535 -0.9384492957746469 -3.290282957746479
H 2.241984507042254 -0.38631929577464685 -1.8135029577464787
C 0.9385645070422537 2.0647807042253534 1.9815670422535212
H 1.0508945070422537 1.5807407042253532 2.9609770422535213
H 1.6053245070422537 1.5496207042253536 1.3096170422535214
C 3.9676945070422533 -1.6881692957746468 -3.314052957746479
H 4.795084507042254 -2.398849295774647 -3.4044129577464783
H 3.548404507042253 -1.4816192957746468 -4.303802957746479
H 4.307714507042253 -0.7637192957746466 -2.851282957746479
C 2.344694507042253 -3.565079295774647 -3.101282957746479
H 1.6334345070422536 -4.047909295774646 -2.4251929577464786
H 1.8561845070422536 -3.293109295774647 -4.041792957746479
H 3.1808045070422537 -4.243519295774647 -3.298122957746479
C 3.5156645070422536 -2.648489295774647 -1.1110629577464786
H 3.9311845070422535 -1.748249295774647 -0.6771029577464787
H 2.767184507042254 -3.1044092957746465 -0.45972295774647876
H 4.319224507042254 -3.371819295774647 -1.2863129577464787
C 2.963994507042253 3.381090704225353 2.401027042253521
H 3.3337945070422537 4.369820704225353 2.6912870422535216
H 3.120994507042253 2.671350704225353 3.2183370422535216
H 3.4665445070422534 3.0664207042253535 1.4881370422535212
C 1.2973745070422538 4.282440704225354 0.8488370422535213
H 1.7592145070422538 3.7367207042253527 0.02653704225352116
H 0.23311450704225378 4.4484607042253534 0.6605570422535213
H 1.7921845070422535 5.251370704225354 0.9736770422535213
C 0.7724845070422537 4.194670704225353 3.2772470422535216
H -0.2956954929577462 4.278220704225354 3.057857042253521
H 0.9298945070422537 3.612620704225354 4.190337042253521
H 1.2046345070422537 5.193640704225353 3.3918370422535213
N 2.876084507042253 -2.324759295774647 -2.4576629577464786
N 1.4527845070422536 3.504690704225353 2.1388470422535213
C -3.593905492957746 -3.637819295774647 0.8297870422535213
H -2.8952554929577463 -1.8680692957746468 1.7595270422535212
H -5.022615492957747 -1.2402792957746467 1.1579970422535213
H -4.898275492957747 -1.7933092957746464 -0.48931295774647876
H -3.883675492957746 0.07871070422535364 -1.2758929577464788
H -3.8751654929577466 -4.038529295774646 -0.1505529577464788
H -4.4603554929577465 -3.7321892957746465 1.4932570422535212
H -2.7953554929577464 -4.271929295774647 1.2313670422535212
H -5.648775492957746 1.147700704225353 0.9733970422535213
H -6.189795492957747 0.5254307042253537 -0.5943629577464788
H -5.2178854929577465 2.002970704225354 -0.5139729577464787
C 3.6710445070422537 1.0263707042253536 -0.27764295774647874
O 2.7356545070422538 1.6631507042253526 -0.7327029577464788
O 3.650814507042253 0.3883007042253537 0.7790570422535212
O 4.756604507042254 0.8696707042253538 -0.8334829577464786
O -3.0079810519842662 6.730309504511549 -2.9567277047763887
H -2.524337101911436 7.311405560264391 -2.3506062149359117
H -3.3962640655135545 6.05817073067696 -2.3767038135333207
O -4.767238291653642 -4.554615751200186 -2.0943057232201854
H -4.6058339934597585 -4.34518120098129 -1.1620755056241507
H -5.528474963177851 -5.153737407723851 -2.0711991243558012
O -1.8654375664905065 -0.8341067796386478 -4.23995442855648
H -1.3762453407214565 -1.0889603506661611 -5.036640050669525
H -1.1837089626201518 -0.47789076091220595 -3.650617340831925
O -0.7229312914123212 -11.242517771589386 2.3534259735949803
H -0.0030654561062599672 -11.831169774937647 2.0809386252406297
H -0.9287559496720337 -10.73801070904757 1.5521327824360251
O 0.08137318102308644 7.883187335774163 6.524117592101276
H -0.40233722892449375 7.465132594399384 7.252280918163781
H -0.03835735232630544 7.27168462407724 5.782032032835244
O 0.4164741712509996 -10.653510137720378 5.096378843382115
H -0.23888216371336268 -10.294849884180692 4.479257904138494
H 0.7903766697354635 -9.868084406707528 5.523304231465334
O 4.461398358402634 0.4820053787947859 5.552354707101624
H 4.461679334373776 -0.1929400273641073 4.857073485826727
H 3.5486108333087656 0.807083086218453 5.562619329314969
O -2.6002667853209585 5.462471702407569 0.30344403533587383
H -2.3569853354689427 5.037189477218255 -0.5325682384950354
H -2.3120061235562757 4.831213316827535 0.9797432189919499
O -7.8387677060686265 0.09208194691496274 10.561402397677217
H -8.583313313326315 0.6249206158730072 10.878738415923337
H -7.792050604704595 0.2952873050127307 9.615100628060093
O -7.916963740604034 7.557616581291358 1.0185435118979522
H -8.006378553462506 7.464297254982236 0.05819781816121361
H -7.3428228239740765 8.330759517620042 1.1261267455190476
O -3.2177806550581876 5.579355897888984 -5.166340037038766
H -2.4953749330709623 6.1955394125824705 -4.972909930901951
H -3.1218347342955215 5.395957984893509 -6.112976994957644
O -7.613231870104483 3.994542468990567 4.959942699246417
H -8.3584954680502 3.7644163002879547 5.534913544555345
H -7.874261153428328 3.654345702784872 4.0909825057906835
O 6.5573661613092575 -3.659383842595436 5.731801232162165
H 5.664040418576309 -3.817644614981189 6.072227438842102
H 6.478526270218695 -2.824090062157203 5.247001772350139
O 6.01353133911188 -1.5991424705434802 -7.995289906271046
H 5.420327069237121 -2.0014696057944095 -8.647370367060306
H 6.70563652826655 -1.1851858726079225 -8.532497767783514
O -7.192553455651548 -7.707786886953191 4.623511586804499
H -6.606090161585728 -7.068989799485687 5.055907750821364
H -6.638963517641421 -8.10449540648224 3.9342203019567834
O -11.176990781837585 1.4048954735779389 -4.878851468696867
H -11.753482354396823 1.6453005260977034 -5.619682241809827
H -10.445424737725197 0.926605354808832 -5.297195381870691
O 5.658489416337509 -5.042016354461925 10.521408699167814
H 6.213907516726867 -4.727673231546169 11.250563341020587
H 5.454953289348308 -4.238754988261832 10.019107826303156
O 5.790953131623003 7.312444735049272 -1.5868034386063505
H 5.416457186352723 8.017275004149168 -1.0373178285703037
H 6.706953568571684 7.2378952280380755 -1.2796430329317015
O 10.199791717568045 -6.692514016231541 1.5872309885293978
H 10.497053855867414 -6.687037585046536 2.509495910737309
H 9.266879821663657 -6.94838188166735 1.6435246313090461
O 9.292828884571659 1.0841286793517109 -3.350382145532747
H 8.84682309883529 0.8340046627088653 -4.173476412484072
H 10.13231702597531 0.6012638133887747 -3.3829877579520193
O 7.223718026948898 6.29288401986985 3.800767917492113
H 6.995383158977734 6.119852828422177 2.8750839802031543
H 6.570259774996442 5.782615618018955 4.3023458429710715
O 8.130824461239113 -8.158227814375977 -4.757106390309863
H 7.745352524650849 -8.985777664436032 -4.4322372032999615
H 8.948099609823945 -8.0638633320957 -4.2451311757832055
O 4.746043069392827 6.875913322799672 3.7270971033808395
H 4.651513019532421 6.97458413918979 2.7677767728518248
H 4.044784994943764 6.252265516550845 3.9684733057724975
O 1.3725834469908014 13.963784571715056 3.7840657225678918
H 1.80739667177696 14.285158271543978 4.588194917106512
H 1.2885787485420725 13.009356356681252 3.928882632098235
C -6.153697212916837 9.42028305732427 6.7045357861172405
O -6.039645693214659 9.203747456245202 5.532817884223209
O -6.267748732619015 9.636818658403337 7.876253688011273