146

C -5.3564454929577465 1.0091607042253532 -0.0734429577464788
C -4.079135492957747 0.16955070422535368 -0.19788295774647868
C -4.333545492957747 -1.2789292957746463 0.3017270422535212
C -3.1403854929577464 -2.1745492957746464 0.7330270422535212
C -2.905235492957746 0.902300704225353 0.41966704225352136
C -2.7423854929577463 1.056130704225354 1.8024770422535212
C -1.8861754929577463 1.3499307042253532 -0.4326129577464788
C -1.5304554929577463 1.5279207042253526 2.3254170422535214
H -3.5237954929577464 0.7301007042253529 2.484817042253521
C -0.6776454929577462 1.8010507042253527 0.08546704225352131
H -1.9759254929577463 1.2426607042253535 -1.5115229577464788
C -0.4680254929577463 1.8513207042253539 1.4698070422535212
H -1.3950654929577464 1.5446707042253527 3.404047042253521
H 0.1461845070422536 1.9972507042253538 -0.6030529577464789
C -1.8679654929577463 -2.0866092957746467 -0.08765295774647863
C -0.6628654929577462 -1.814079295774647 0.5787970422535212
C -1.8438954929577462 -2.213429295774647 -1.4808029577464787
C 0.5129345070422537 -1.5763292957746469 -0.13022295774647863
H -0.6401854929577462 -1.7032692957746463 1.6609470422535213
C -0.6547954929577462 -1.9962392957746466 -2.1933129577464787
H -2.7578654929577464 -2.4351492957746466 -2.026182957746479
C 0.5308845070422537 -1.645769295774647 -1.5261029577464789
H 1.4044045070422537 -1.2610992957746463 0.41551704225352126
H -0.6795654929577464 -2.0467992957746466 -3.2793129577464786
C 1.7843245070422535 -1.2521692957746469 -2.2771629577464787
H 1.4981245070422535 -0.9384492957746469 -3.290282957746479
H 2.241984507042254 -0.38631929577464685 -1.8135029577464787
C 0.9385645070422537 2.0647807042253534 1.9815670422535212
H 1.0508945070422537 1.5807407042253532 2.9609770422535213
H 1.6053245070422537 1.5496207042253536 1.3096170422535214
C 3.9676945070422533 -1.6881692957746468 -3.314052957746479
H 4.795084507042254 -2.398849295774647 -3.4044129577464783
H 3.548404507042253 -1.4816192957746468 -4.303802957746479
H 4.307714507042253 -0.7637192957746466 -2.851282957746479
C 2.344694507042253 -3.565079295774647 -3.101282957746479
H 1.6334345070422536 -4.047909295774646 -2.4251929577464786
H 1.8561845070422536 -3.293109295774647 -4.041792957746479
H 3.1808045070422537 -4.243519295774647 -3.298122957746479
C 3.5156645070422536 -2.648489295774647 -1.1110629577464786
H 3.9311845070422535 -1.748249295774647 -0.6771029577464787
H 2.767184507042254 -3.1044092957746465 -0.45972295774647876
H 4.319224507042254 -3.371819295774647 -1.2863129577464787
C 2.963994507042253 3.381090704225353 2.401027042253521
H 3.3337945070422537 4.369820704225353 2.6912870422535216
H 3.120994507042253 2.671350704225353 3.2183370422535216
H 3.4665445070422534 3.0664207042253535 1.4881370422535212
C 1.2973745070422538 4.282440704225354 0.8488370422535213
H 1.7592145070422538 3.7367207042253527 0.02653704225352116
H 0.23311450704225378 4.4484607042253534 0.6605570422535213
H 1.7921845070422535 5.251370704225354 0.9736770422535213
C 0.7724845070422537 4.194670704225353 3.2772470422535216
H -0.2956954929577462 4.278220704225354 3.057857042253521
H 0.9298945070422537 3.612620704225354 4.190337042253521
H 1.2046345070422537 5.193640704225353 3.3918370422535213
N 2.876084507042253 -2.324759295774647 -2.4576629577464786
N 1.4527845070422536 3.504690704225353 2.1388470422535213
C -3.593905492957746 -3.637819295774647 0.8297870422535213
H -2.8952554929577463 -1.8680692957746468 1.7595270422535212
H -5.022615492957747 -1.2402792957746467 1.1579970422535213
H -4.898275492957747 -1.7933092957746464 -0.48931295774647876
H -3.883675492957746 0.07871070422535364 -1.2758929577464788
H -3.8751654929577466 -4.038529295774646 -0.1505529577464788
H -4.4603554929577465 -3.7321892957746465 1.4932570422535212
H -2.7953554929577464 -4.271929295774647 1.2313670422535212
H -5.648775492957746 1.147700704225353 0.9733970422535213
H -6.189795492957747 0.5254307042253537 -0.5943629577464788
H -5.2178854929577465 2.002970704225354 -0.5139729577464787
C 3.6710445070422537 1.0263707042253536 -0.27764295774647874
O 2.7356545070422538 1.6631507042253526 -0.7327029577464788
O 3.650814507042253 0.3883007042253537 0.7790570422535212
O 4.756604507042254 0.8696707042253538 -0.8334829577464786
O -5.687124647132717 -2.1411400127502853 -12.4943730408662
H -5.369193215973561 -2.5048770242471123 -13.334362533924567
H -5.696923216315151 -2.904458081514117 -11.897538509156925
O -4.934750060069259 -11.298743325201578 -3.116585641284352
H -4.8952109503934675 -11.326743638898638 -2.1487943424296283
H -4.137371633273593 -11.772446347756096 -3.3972189165807474
O 2.634530261823943 12.972440057314717 -7.099517174330534
H 2.4325436097545365 13.256953692164133 -8.003519796489654
H 1.8107884191613177 13.131315274350403 -6.614573892741184
O 6.257893687510333 1.9883874124972682 -5.976818669111391
H 6.299398674454887 1.9607476325549045 -6.944538016610174
H 7.136536714720786 1.6913235515396066 -5.6962809041894875
O 0.4652948985226459 1.5409504083847603 11.234835106988564
H -0.39062214391902866 1.4764960594917649 10.785147426184787
H 0.35069296710543363 1.0052314030352436 12.034105705048301
O 16.40830469959498 3.9379560155685276 -5.88019196410139
H 16.960378071743918 3.6281046909160706 -6.613795743586758
H 16.851273501609988 4.745315279643128 -5.5786764529675406
O 7.992537515083955 -6.650082259960843 2.989085320397627
H 7.030236006005273 -6.656648293889036 2.875506934587017
H 8.33087029810104 -6.434749439132849 2.106971581410315
O -8.30653114599599 -3.8347052549515768 6.676465394774428
H -9.23871310808716 -4.03051044961224 6.854410532937177
H -7.928448462988832 -4.694122040958689 6.436844408549694
O -10.233210824285953 3.7102082555875215 0.35725610677159114
H -10.163551230697735 4.365528565406413 -0.35314532161942536
H -9.36183338852118 3.7304567270199556 0.780639276187501
O -1.071705237747762 -10.820501070124259 1.0411701301999448
H -1.7755998529654113 -10.509471441243898 1.6300336946409328
H -1.5098280509885007 -10.914598975925816 0.18201011661587296
O 13.398041506912666 -0.7492765462096034 7.151838294143671
H 13.865368879150994 -0.5177692021144402 7.968524790717985
H 13.816993135384331 -1.5758850029292213 6.868712992235572
O -11.091283513700505 0.2698785711895808 2.2681662989084788
H -10.868912780326747 0.5591587136297935 1.3704828285089246
H -10.241511081932892 -0.008153822923393506 2.6417258608682346
O -2.27058090560962 4.915162444959526 -5.601462056591138
H -2.230440407430516 5.282170596068859 -6.4973756206838145
H -2.9413066151923775 4.218589245383989 -5.663709501822302
O -7.461575255540028 3.4061164162863706 -4.015104193919502
H -7.4676064996978715 3.877532785999687 -4.861684129519342
H -8.24583689683203 2.8385897701346408 -4.057638041685038
O -1.3434712140886396 -5.520784258132423 -7.616411181835599
H -0.45457433566662564 -5.3100158165123945 -7.939530912660978
H -1.9325365885862853 -5.097056856433514 -8.258609763208558
O -5.371719668014422 2.383280511788324 -8.815889306572231
H -6.323080359239482 2.559352881654318 -8.76223567052069
H -5.020413628239718 3.1424052495648525 -9.305047402910757
O 6.909698503052504 -0.8889547962493118 -6.917007441343669
H 6.763051415294896 -0.9669998462577549 -5.96234993274627
H 7.826104090670384 -1.1798531597527546 -7.03759303498465
O -1.9841364817642133 -1.4075613482830553 -5.649822558450312
H -2.250899964028664 -0.8135560415836403 -6.367431293795054
H -1.0219285000072165 -1.3024116843046878 -5.604421101333138
O 9.53295773612375 4.410017929338108 -3.7475376256526993
H 9.50740033277013 4.375712319905103 -2.7794791040770406
H 9.01573934656247 5.19935987987795 -3.967506639192319
O -3.5668440834994817 3.020550217877431 10.032461540516243
H -3.1752917028275744 2.244380562047457 10.460497468282759
H -4.017499672716051 2.6569464151754505 9.255503524360591
O -12.843660953122663 -2.4100272273480057 -2.5962368279438044
H -13.682438916197636 -2.2598915818980663 -2.134849600633456
H -12.2016354683606 -1.8901240406485649 -2.0898122060346758
O -4.251608828078032 5.933955191066895 8.588106376564554
H -4.684701140570457 6.776384039538801 8.792341635573035
H -4.956414662448655 5.397739405337225 8.194808383598097
O 7.733158347500352 -10.56911695243916 -8.701249535558626
H 8.179606548462347 -10.253093959262724 -9.501112541667549
H 7.138522873827148 -9.842254493947655 -8.46241577708816
O -2.425067711850962 -7.830799355040899 8.04901007779039
H -2.932037948613973 -7.6135209749018 7.252305213075365
H -1.7746191756595384 -8.48041721475597 7.74261934293432
C 2.362840336589974 -6.338621556473177 -4.260343027440843
O 2.927282229602291 -6.160945890599388 -3.219835956600391
O 1.7983984435776563 -6.5162972223469655 -5.3008500982812965