146

C -5.3564454929577465 1.0091607042253532 -0.0734429577464788
C -4.079135492957747 0.16955070422535368 -0.19788295774647868
C -4.333545492957747 -1.2789292957746463 0.3017270422535212
C -3.1403854929577464 -2.1745492957746464 0.7330270422535212
C -2.905235492957746 0.902300704225353 0.41966704225352136
C -2.7423854929577463 1.056130704225354 1.8024770422535212
C -1.8861754929577463 1.3499307042253532 -0.4326129577464788
C -1.5304554929577463 1.5279207042253526 2.3254170422535214
H -3.5237954929577464 0.7301007042253529 2.484817042253521
C -0.6776454929577462 1.8010507042253527 0.08546704225352131
H -1.9759254929577463 1.2426607042253535 -1.5115229577464788
C -0.4680254929577463 1.8513207042253539 1.4698070422535212
H -1.3950654929577464 1.5446707042253527 3.404047042253521
H 0.1461845070422536 1.9972507042253538 -0.6030529577464789
C -1.8679654929577463 -2.0866092957746467 -0.08765295774647863
C -0.6628654929577462 -1.814079295774647 0.5787970422535212
C -1.8438954929577462 -2.213429295774647 -1.4808029577464787
C 0.5129345070422537 -1.5763292957746469 -0.13022295774647863
H -0.6401854929577462 -1.7032692957746463 1.6609470422535213
C -0.6547954929577462 -1.9962392957746466 -2.1933129577464787
H -2.7578654929577464 -2.4351492957746466 -2.026182957746479
C 0.5308845070422537 -1.645769295774647 -1.5261029577464789
H 1.4044045070422537 -1.2610992957746463 0.41551704225352126
H -0.6795654929577464 -2.0467992957746466 -3.2793129577464786
C 1.7843245070422535 -1.2521692957746469 -2.2771629577464787
H 1.4981245070422535 -0.9384492957746469 -3.290282957746479
H 2.241984507042254 -0.38631929577464685 -1.8135029577464787
C 0.9385645070422537 2.0647807042253534 1.9815670422535212
H 1.0508945070422537 1.5807407042253532 2.9609770422535213
H 1.6053245070422537 1.5496207042253536 1.3096170422535214
C 3.9676945070422533 -1.6881692957746468 -3.314052957746479
H 4.795084507042254 -2.398849295774647 -3.4044129577464783
H 3.548404507042253 -1.4816192957746468 -4.303802957746479
H 4.307714507042253 -0.7637192957746466 -2.851282957746479
C 2.344694507042253 -3.565079295774647 -3.101282957746479
H 1.6334345070422536 -4.047909295774646 -2.4251929577464786
H 1.8561845070422536 -3.293109295774647 -4.041792957746479
H 3.1808045070422537 -4.243519295774647 -3.298122957746479
C 3.5156645070422536 -2.648489295774647 -1.1110629577464786
H 3.9311845070422535 -1.748249295774647 -0.6771029577464787
H 2.767184507042254 -3.1044092957746465 -0.45972295774647876
H 4.319224507042254 -3.371819295774647 -1.2863129577464787
C 2.963994507042253 3.381090704225353 2.401027042253521
H 3.3337945070422537 4.369820704225353 2.6912870422535216
H 3.120994507042253 2.671350704225353 3.2183370422535216
H 3.4665445070422534 3.0664207042253535 1.4881370422535212
C 1.2973745070422538 4.282440704225354 0.8488370422535213
H 1.7592145070422538 3.7367207042253527 0.02653704225352116
H 0.23311450704225378 4.4484607042253534 0.6605570422535213
H 1.7921845070422535 5.251370704225354 0.9736770422535213
C 0.7724845070422537 4.194670704225353 3.2772470422535216
H -0.2956954929577462 4.278220704225354 3.057857042253521
H 0.9298945070422537 3.612620704225354 4.190337042253521
H 1.2046345070422537 5.193640704225353 3.3918370422535213
N 2.876084507042253 -2.324759295774647 -2.4576629577464786
N 1.4527845070422536 3.504690704225353 2.1388470422535213
C -3.593905492957746 -3.637819295774647 0.8297870422535213
H -2.8952554929577463 -1.8680692957746468 1.7595270422535212
H -5.022615492957747 -1.2402792957746467 1.1579970422535213
H -4.898275492957747 -1.7933092957746464 -0.48931295774647876
H -3.883675492957746 0.07871070422535364 -1.2758929577464788
H -3.8751654929577466 -4.038529295774646 -0.1505529577464788
H -4.4603554929577465 -3.7321892957746465 1.4932570422535212
H -2.7953554929577464 -4.271929295774647 1.2313670422535212
H -5.648775492957746 1.147700704225353 0.9733970422535213
H -6.189795492957747 0.5254307042253537 -0.5943629577464788
H -5.2178854929577465 2.002970704225354 -0.5139729577464787
C 3.6710445070422537 1.0263707042253536 -0.27764295774647874
O 2.7356545070422538 1.6631507042253526 -0.7327029577464788
O 3.650814507042253 0.3883007042253537 0.7790570422535212
O 4.756604507042254 0.8696707042253538 -0.8334829577464786
O -2.9360705649561676 7.454201725018128 -5.197194422227527
H -2.7268898391957266 7.88604488827851 -6.039050860829503
H -3.259391719525002 8.17628970045633 -4.637717585320195
O -2.4919209852682402 11.676778342740207 -3.7811929929993897
H -2.7071518714796556 12.621336465604264 -3.7599097824291996
H -3.252905101556671 11.253679633004321 -3.3559253115603376
O 10.743418447146022 0.6645380192263817 -0.9367082556439498
H 10.721314037280495 0.6112134306223731 -1.9039906550572292
H 10.289060404351877 -0.1409724724550982 -0.6474444296315424
O -8.780148557057762 -9.039092125537888 1.8831541922368533
H -7.886217138583133 -8.975956729281389 2.2517568206912286
H -9.354027442644616 -8.757455338716044 2.611375099164317
O 3.1990116625354057 -1.6826130966686703 9.365170545587633
H 3.7039182176156227 -1.1738210610108297 10.017219157263309
H 2.32303863736044 -1.7762821841629937 9.768728850562017
O -0.6659847135897179 9.808157371806757 -7.365262669466111
H -0.8435725454006828 9.77996918193513 -8.317436679216662
H 0.28053876719435333 10.008026964931155 -7.3095186978755216
O -0.6629756419359751 -3.6251401342386775 -7.128115055485375
H -0.07023662337558789 -3.951074724980181 -7.82194101012691
H -0.7721462739637102 -2.6850447152366343 -7.336115826094615
O -6.880589756979113 10.769690651756404 1.5487116219149533
H -6.931616963568267 10.400022041618294 2.4429759563073454
H -5.9418363799383345 10.982059501286692 1.4364462526165165
O -2.0680040873180734 6.003442051835709 -8.610583631757201
H -2.3364578663595688 6.236624148742647 -9.511985892182825
H -1.1329385512660601 6.254757395004921 -8.572439354656963
O -7.172107633073463 6.639866898883989 6.122226853896231
H -7.187147852733825 6.956689400148773 7.0378494024307745
H -6.956099089735137 7.430065793051208 5.60464791193495
O -4.01888390688422 5.785238648706966 9.462238798015377
H -3.5890405803854866 6.149924782107341 8.674072511201492
H -4.801674118502262 5.33275787979982 9.113723973848346
O 12.29167976130103 -3.942231993012811 3.4476133045622412
H 11.953323491796137 -3.4341631867079156 4.200174584357217
H 11.61018384210698 -3.8346560036297905 2.7672070561120092
O -4.009965310431298 9.875353469978725 -8.71658655249707
H -3.4080891629851564 10.013357384965916 -7.9698152491627745
H -4.7555120429762665 10.465014188967498 -8.528378554863695
O -3.2135651147495867 -10.432493924431068 -2.792289849012428
H -3.4233271438607096 -10.696940894246989 -1.8839754495898697
H -2.275511501819251 -10.654869160687735 -2.89009893789549
O 7.3699331640193995 -2.849813932524664 5.4672293103753224
H 7.127104748184921 -2.945076274090773 6.400463902341705
H 7.124269010495196 -1.9371779831613 5.253438075983291
O 2.7308895555782255 -1.5284617600363282 -12.294176927878627
H 3.424772134695835 -1.5511342922709837 -11.618173762516834
H 3.128196802176133 -1.982042080565444 -13.052710901362675
O 1.9254703509318636 11.117426308650137 2.1701213521189975
H 1.7468727547389125 12.043162204877564 1.9463283540826368
H 2.170954246100668 10.715110838085566 1.3234562095406825
O -3.1914294131086094 1.8623139916557379 7.763935266805392
H -2.9978807774226337 2.1425924830740737 8.671101320939012
H -4.14299729273987 1.679582208676473 7.773401535515195
O -0.9403295505681393 13.64405032015185 -3.0357758272783215
H -0.33136961423364664 14.39696992301229 -3.0004597619826385
H -0.7515982339076217 13.230308786823278 -3.891439533421402
O 11.827493259267374 4.607928468142217 3.535647233434144
H 11.20110053704965 4.2150499966426285 4.161942707699142
H 12.159176568395836 3.850648287936566 3.0302020282800246
O 9.176204876280007 -0.6416176698310889 10.829274185877813
H 9.581446100893531 -1.359480216590101 11.338607348684238
H 8.423928167865128 -0.3642543614678022 11.373435277329826
O -1.9484041257926386 -5.09991831720364 -2.9651947864048536
H -2.603781911549084 -4.677349783437906 -3.540419220089705
H -1.0977212912888459 -4.845529437803032 -3.3532501399536665
O -6.780450843551897 -3.1541581488153985 -8.972189223265183
H -7.48737770110429 -3.7311470133327544 -9.298234657513346
H -7.232250863621401 -2.5526740864035316 -8.361406439593514
O 5.889278416893607 -4.424595261821728 11.709834418054484
H 6.459268704876639 -5.028743296823455 12.208917156995206
H 5.654757030904904 -3.738982145430798 12.353182161072716
C 7.26876252557148 -6.5056615410519365 -0.383776566148464
O 6.878921722672473 -7.502972381227591 0.15121268025111445
O 7.6586033284704875 -5.508350700876283 -0.918765812548042