146

C -5.3564454929577465 1.0091607042253532 -0.0734429577464788
C -4.079135492957747 0.16955070422535368 -0.19788295774647868
C -4.333545492957747 -1.2789292957746463 0.3017270422535212
C -3.1403854929577464 -2.1745492957746464 0.7330270422535212
C -2.905235492957746 0.902300704225353 0.41966704225352136
C -2.7423854929577463 1.056130704225354 1.8024770422535212
C -1.8861754929577463 1.3499307042253532 -0.4326129577464788
C -1.5304554929577463 1.5279207042253526 2.3254170422535214
H -3.5237954929577464 0.7301007042253529 2.484817042253521
C -0.6776454929577462 1.8010507042253527 0.08546704225352131
H -1.9759254929577463 1.2426607042253535 -1.5115229577464788
C -0.4680254929577463 1.8513207042253539 1.4698070422535212
H -1.3950654929577464 1.5446707042253527 3.404047042253521
H 0.1461845070422536 1.9972507042253538 -0.6030529577464789
C -1.8679654929577463 -2.0866092957746467 -0.08765295774647863
C -0.6628654929577462 -1.814079295774647 0.5787970422535212
C -1.8438954929577462 -2.213429295774647 -1.4808029577464787
C 0.5129345070422537 -1.5763292957746469 -0.13022295774647863
H -0.6401854929577462 -1.7032692957746463 1.6609470422535213
C -0.6547954929577462 -1.9962392957746466 -2.1933129577464787
H -2.7578654929577464 -2.4351492957746466 -2.026182957746479
C 0.5308845070422537 -1.645769295774647 -1.5261029577464789
H 1.4044045070422537 -1.2610992957746463 0.41551704225352126
H -0.6795654929577464 -2.0467992957746466 -3.2793129577464786
C 1.7843245070422535 -1.2521692957746469 -2.2771629577464787
H 1.4981245070422535 -0.9384492957746469 -3.290282957746479
H 2.241984507042254 -0.38631929577464685 -1.8135029577464787
C 0.9385645070422537 2.0647807042253534 1.9815670422535212
H 1.0508945070422537 1.5807407042253532 2.9609770422535213
H 1.6053245070422537 1.5496207042253536 1.3096170422535214
C 3.9676945070422533 -1.6881692957746468 -3.314052957746479
H 4.795084507042254 -2.398849295774647 -3.4044129577464783
H 3.548404507042253 -1.4816192957746468 -4.303802957746479
H 4.307714507042253 -0.7637192957746466 -2.851282957746479
C 2.344694507042253 -3.565079295774647 -3.101282957746479
H 1.6334345070422536 -4.047909295774646 -2.4251929577464786
H 1.8561845070422536 -3.293109295774647 -4.041792957746479
H 3.1808045070422537 -4.243519295774647 -3.298122957746479
C 3.5156645070422536 -2.648489295774647 -1.1110629577464786
H 3.9311845070422535 -1.748249295774647 -0.6771029577464787
H 2.767184507042254 -3.1044092957746465 -0.45972295774647876
H 4.319224507042254 -3.371819295774647 -1.2863129577464787
C 2.963994507042253 3.381090704225353 2.401027042253521
H 3.3337945070422537 4.369820704225353 2.6912870422535216
H 3.120994507042253 2.671350704225353 3.2183370422535216
H 3.4665445070422534 3.0664207042253535 1.4881370422535212
C 1.2973745070422538 4.282440704225354 0.8488370422535213
H 1.7592145070422538 3.7367207042253527 0.02653704225352116
H 0.23311450704225378 4.4484607042253534 0.6605570422535213
H 1.7921845070422535 5.251370704225354 0.9736770422535213
C 0.7724845070422537 4.194670704225353 3.2772470422535216
H -0.2956954929577462 4.278220704225354 3.057857042253521
H 0.9298945070422537 3.612620704225354 4.190337042253521
H 1.2046345070422537 5.193640704225353 3.3918370422535213
N 2.876084507042253 -2.324759295774647 -2.4576629577464786
N 1.4527845070422536 3.504690704225353 2.1388470422535213
C -3.593905492957746 -3.637819295774647 0.8297870422535213
H -2.8952554929577463 -1.8680692957746468 1.7595270422535212
H -5.022615492957747 -1.2402792957746467 1.1579970422535213
H -4.898275492957747 -1.7933092957746464 -0.48931295774647876
H -3.883675492957746 0.07871070422535364 -1.2758929577464788
H -3.8751654929577466 -4.038529295774646 -0.1505529577464788
H -4.4603554929577465 -3.7321892957746465 1.4932570422535212
H -2.7953554929577464 -4.271929295774647 1.2313670422535212
H -5.648775492957746 1.147700704225353 0.9733970422535213
H -6.189795492957747 0.5254307042253537 -0.5943629577464788
H -5.2178854929577465 2.002970704225354 -0.5139729577464787
C 3.6710445070422537 1.0263707042253536 -0.27764295774647874
O 2.7356545070422538 1.6631507042253526 -0.7327029577464788
O 3.650814507042253 0.3883007042253537 0.7790570422535212
O 4.756604507042254 0.8696707042253538 -0.8334829577464786
O -4.660639273502996 -8.194529299194143 5.473294157486925
H -5.37431215638933 -8.499587299380503 4.89314073842003
H -3.8525292851824386 -8.416114445711989 4.986652385832236
O -3.1744316241701735 -1.1219538706940364 -11.46406742949568
H -3.659943864063871 -1.7765006341641678 -11.988294247051002
H -3.3163461780566577 -1.4039228014613139 -10.54792566875275
O -2.164688061267417 10.367151637065994 1.4652471986054183
H -1.6216771673876882 11.07431889667616 1.0857462197352912
H -1.5863384624612462 9.956681694169927 2.1255411572629566
O -2.329399910183312 1.8430893011984344 5.479423898283141
H -2.2131942888193508 2.7757861517860674 5.715093572546348
H -2.912560285076564 1.8680151907162914 4.705948222203986
O -13.159196775239025 -6.169815973314604 1.7480938301364377
H -12.351473166725471 -6.618976640481498 1.4568814948550606
H -12.919719768093252 -5.2308876818569985 1.7429585746407645
O 9.001726865972318 7.9674632801762275 3.345922481629869
H 8.501449075411955 8.194595748897585 2.547736832282186
H 9.658044139391732 8.676444081171995 3.420459752378809
O 2.749286140061762 10.927693124257955 1.427917911227112
H 2.988545526001298 10.764419577419087 0.5032211760525505
H 2.884941115741209 10.070826112086374 1.859587455352658
O 5.11530063173211 -8.310736998486263 1.625178532110137
H 5.270158201675643 -7.993474015471554 0.722775800764651
H 4.1744762787811105 -8.135163048798523 1.7767874678144093
O -2.8479508339123454 -4.368026161810628 7.582192582389963
H -3.701883957151113 -4.589885498401264 7.181513143557311
H -2.87207588641479 -4.80982292923353 8.444280479553836
O 0.11980072892604365 -2.7643663522133384 3.9147083535809855
H -0.3588899540640509 -3.4551878985048874 4.396982319390702
H 0.22614726442895727 -3.131400409493799 3.0242374896652873
O 11.806559407227265 -1.2855770895985206 -2.862767817336746
H 11.906635710785189 -0.34446134687100405 -2.65479366231594
H 10.848442017069871 -1.4290471285398425 -2.8430356379295816
O -2.1089470064333686 -3.326901607073939 -10.086178318402286
H -2.647323167499522 -3.5419707718861826 -9.30973532600514
H -2.3464630880862978 -2.409591573359689 -10.288885884377018
O -1.5303741116804637 2.2750669408318505 -3.5002344274293113
H -2.3518991105190894 2.3898513923380116 -2.999346652697659
H -0.8390500177702035 2.2843820503278085 -2.821304261495999
O 7.871995445851262 -1.347301053530035 -5.837812172891365
H 8.61484669534023 -1.9386802274705652 -6.0312289525721745
H 8.284850355710068 -0.5891177786085606 -5.397731624201896
O 2.6795224292321405 10.958221156268777 9.466300000413144
H 2.6644130694089108 10.934675570328592 10.434899334259942
H 1.9262764441142357 11.521837502464958 9.234095253467213
O -0.9167634980959167 2.0150755438923875 -5.968501242856092
H -0.567444899581182 2.689545706374016 -6.570193750332884
H -0.9127295263714917 2.449437857746578 -5.102317052469682
O 7.786023497413821 -7.34589921207525 4.075486418139772
H 8.136603084074371 -7.190602143308035 3.185573989442864
H 8.16203483756081 -6.626070014176454 4.60409150914178
O -7.860939645686765 3.6361653893536037 0.46212573508070864
H -7.770229845171388 2.708330058880096 0.7264374611080977
H -7.652643214544495 4.130802076926992 1.2689151055980834
O 12.963468400484654 0.18305787244367822 -4.7699706010678575
H 13.512663167360243 0.0035939845064052456 -5.5478813786400085
H 13.315328890571521 -0.41359859562533363 -4.092359208802912
O 4.841276895206014 1.4645564865304275 -7.522001047166205
H 4.341238297161444 0.6359170792740896 -7.56980784697007
H 4.231581463502911 2.0812350453025785 -7.0896343278051175
O 6.763878170792793 9.337667922906057 2.5056571781463046
H 6.4699162618416075 9.804693513748822 3.302175131794397
H 5.941315120696447 9.021303385790718 2.1028353160633335
O -3.9553056584508974 -13.831165921302082 5.112590826993906
H -3.5745953647643596 -14.718022681449943 5.1992632918322315
H -3.2083824138902264 -13.238061258564516 5.283747100831343
O 6.5564980996009 -12.644088812874083 5.978566303755926
H 6.821387000290342 -13.553188847832804 5.772803446005579
H 6.951204145303551 -12.476267038928057 6.847476502784218
O 2.1633856947160126 3.478704792371058 -12.637500548217128
H 2.726297879929538 4.244223838298758 -12.827442168090396
H 2.0797341035365284 3.0316434394763805 -13.493129265793343
C -4.8622177190032465 6.474560091801321 4.909983537581379
O -4.644490884021493 7.115315270920864 5.897326478539743
O -5.079944553985001 5.833804912681779 3.9226405966230145