146

C -5.3564454929577465 1.0091607042253532 -0.0734429577464788
C -4.079135492957747 0.16955070422535368 -0.19788295774647868
C -4.333545492957747 -1.2789292957746463 0.3017270422535212
C -3.1403854929577464 -2.1745492957746464 0.7330270422535212
C -2.905235492957746 0.902300704225353 0.41966704225352136
C -2.7423854929577463 1.056130704225354 1.8024770422535212
C -1.8861754929577463 1.3499307042253532 -0.4326129577464788
C -1.5304554929577463 1.5279207042253526 2.3254170422535214
H -3.5237954929577464 0.7301007042253529 2.484817042253521
C -0.6776454929577462 1.8010507042253527 0.08546704225352131
H -1.9759254929577463 1.2426607042253535 -1.5115229577464788
C -0.4680254929577463 1.8513207042253539 1.4698070422535212
H -1.3950654929577464 1.5446707042253527 3.404047042253521
H 0.1461845070422536 1.9972507042253538 -0.6030529577464789
C -1.8679654929577463 -2.0866092957746467 -0.08765295774647863
C -0.6628654929577462 -1.814079295774647 0.5787970422535212
C -1.8438954929577462 -2.213429295774647 -1.4808029577464787
C 0.5129345070422537 -1.5763292957746469 -0.13022295774647863
H -0.6401854929577462 -1.7032692957746463 1.6609470422535213
C -0.6547954929577462 -1.9962392957746466 -2.1933129577464787
H -2.7578654929577464 -2.4351492957746466 -2.026182957746479
C 0.5308845070422537 -1.645769295774647 -1.5261029577464789
H 1.4044045070422537 -1.2610992957746463 0.41551704225352126
H -0.6795654929577464 -2.0467992957746466 -3.2793129577464786
C 1.7843245070422535 -1.2521692957746469 -2.2771629577464787
H 1.4981245070422535 -0.9384492957746469 -3.290282957746479
H 2.241984507042254 -0.38631929577464685 -1.8135029577464787
C 0.9385645070422537 2.0647807042253534 1.9815670422535212
H 1.0508945070422537 1.5807407042253532 2.9609770422535213
H 1.6053245070422537 1.5496207042253536 1.3096170422535214
C 3.9676945070422533 -1.6881692957746468 -3.314052957746479
H 4.795084507042254 -2.398849295774647 -3.4044129577464783
H 3.548404507042253 -1.4816192957746468 -4.303802957746479
H 4.307714507042253 -0.7637192957746466 -2.851282957746479
C 2.344694507042253 -3.565079295774647 -3.101282957746479
H 1.6334345070422536 -4.047909295774646 -2.4251929577464786
H 1.8561845070422536 -3.293109295774647 -4.041792957746479
H 3.1808045070422537 -4.243519295774647 -3.298122957746479
C 3.5156645070422536 -2.648489295774647 -1.1110629577464786
H 3.9311845070422535 -1.748249295774647 -0.6771029577464787
H 2.767184507042254 -3.1044092957746465 -0.45972295774647876
H 4.319224507042254 -3.371819295774647 -1.2863129577464787
C 2.963994507042253 3.381090704225353 2.401027042253521
H 3.3337945070422537 4.369820704225353 2.6912870422535216
H 3.120994507042253 2.671350704225353 3.2183370422535216
H 3.4665445070422534 3.0664207042253535 1.4881370422535212
C 1.2973745070422538 4.282440704225354 0.8488370422535213
H 1.7592145070422538 3.7367207042253527 0.02653704225352116
H 0.23311450704225378 4.4484607042253534 0.6605570422535213
H 1.7921845070422535 5.251370704225354 0.9736770422535213
C 0.7724845070422537 4.194670704225353 3.2772470422535216
H -0.2956954929577462 4.278220704225354 3.057857042253521
H 0.9298945070422537 3.612620704225354 4.190337042253521
H 1.2046345070422537 5.193640704225353 3.3918370422535213
N 2.876084507042253 -2.324759295774647 -2.4576629577464786
N 1.4527845070422536 3.504690704225353 2.1388470422535213
C -3.593905492957746 -3.637819295774647 0.8297870422535213
H -2.8952554929577463 -1.8680692957746468 1.7595270422535212
H -5.022615492957747 -1.2402792957746467 1.1579970422535213
H -4.898275492957747 -1.7933092957746464 -0.48931295774647876
H -3.883675492957746 0.07871070422535364 -1.2758929577464788
H -3.8751654929577466 -4.038529295774646 -0.1505529577464788
H -4.4603554929577465 -3.7321892957746465 1.4932570422535212
H -2.7953554929577464 -4.271929295774647 1.2313670422535212
H -5.648775492957746 1.147700704225353 0.9733970422535213
H -6.189795492957747 0.5254307042253537 -0.5943629577464788
H -5.2178854929577465 2.002970704225354 -0.5139729577464787
C 3.6710445070422537 1.0263707042253536 -0.27764295774647874
O 2.7356545070422538 1.6631507042253526 -0.7327029577464788
O 3.650814507042253 0.3883007042253537 0.7790570422535212
O 4.756604507042254 0.8696707042253538 -0.8334829577464786
O -5.790210562462388 -5.591578143435017 8.51676105427205
H -6.45657360957321 -6.280032237771341 8.371990178966511
H -5.008130949356645 -5.9207218767814975 8.048810388215134
O -6.713631049434973 -3.783087058829862 2.633952630703411
H -6.986280255287948 -4.3003144017892305 1.8612265193658066
H -6.891631920343783 -2.866044880690106 2.3764428682313907
O -8.381454645702808 -4.494932472956501 -4.999783690728142
H -9.06887129345461 -4.212435751296911 -4.37799489093736
H -7.574552694357242 -4.078242030997595 -4.661789222142032
O 1.1787288494769643 8.499520805554882 11.501548996502642
H 1.5292424230393618 9.401597372033716 11.550184989946517
H 1.961751388980428 7.938240433592061 11.605481623616678
O 3.5457424427628603 -2.1560564182267465 -6.369259042353707
H 3.178354350017572 -2.3171617978102534 -7.251323894208849
H 3.115498185821436 -2.821382362047897 -5.811412099055265
O -4.590120153340451 -4.4232935680685 6.4078074273560155
H -5.425832300081098 -3.933911915044897 6.375278019522098
H -4.0301583789702375 -3.973747859733787 5.7571820269434575
O 6.984341684355623 -0.16059117308388404 -7.980595003378644
H 6.854626043320209 0.4436746643181948 -7.234267992531832
H 6.246055747781813 0.04006351044335288 -8.575265936026199
O -8.924583686094536 3.590985217723457 -0.624499227483351
H -9.274217350781514 3.883974192467598 -1.4794150818783502
H -8.999713327500043 2.62553054764102 -0.659352653402395
O -10.821594901183257 0.36666375008095065 -5.175484250848776
H -10.874098258295358 0.514739428252657 -4.219302077868152
H -10.184873461767387 -0.3582166739176942 -5.265462713781452
O -4.926590598872907 -0.8215426464266522 -13.286765290062274
H -5.58405812252121 -0.560732469548699 -13.949095920400824
H -4.083881942681706 -0.776019468788006 -13.762928818041999
O -1.9317145420742565 8.07545335626263 5.383521711983604
H -2.348158071716577 8.060189626170478 6.258341214545544
H -2.108624859506276 7.192913504326352 5.024651131369374
O 1.6131635100221309 -6.746846366817026 10.246818425309673
H 1.5293849146610583 -6.6433172294001634 11.206625813052156
H 1.4485387193919932 -7.690075246183117 10.097889234954753
O 7.204000549613133 -2.4500124823122595 5.903313560031251
H 6.2444616196494955 -2.454002466833454 5.768271052620593
H 7.434394410675372 -3.3886053885666234 5.97348456126267
O 9.405200077665901 8.566375140820423 5.201648985538186
H 9.632946556824903 8.51943507854092 6.142337844132713
H 9.91130647587939 7.843160079546054 4.801926290243955
O 0.8799075542289105 7.095464256464516 -4.360532161116604
H 0.7830847903584419 7.363757488352494 -3.4344590263051096
H 1.6208332448400204 6.471116191564566 -4.347094931188591
O -1.0111615966148784 9.084681507138194 -1.8202534192312712
H -0.9881374831395915 9.027474836499984 -0.8532143073370473
H -1.5986944734584339 8.360529356931005 -2.08363665005328
O 8.32681084904156 -4.174570861546305 4.191582552050944
H 7.693365169734054 -4.369721628469135 4.898427730598612
H 7.774845697467834 -3.842164838598214 3.4678404352330636
O -2.563301731109526 -4.0188447370372575 11.88817505189853
H -3.1388044752976576 -4.085861851793146 11.111468765930837
H -3.1528495517442074 -3.70413541308874 12.589854004771396
O -7.168509531989443 5.515860036329055 3.5555888967742324
H -7.579283852823245 6.39302412385311 3.5841367128312225
H -7.212953137309663 5.206630544605629 4.4728477651939444
O 9.90589820044799 0.9274209296708427 -5.376662167583641
H 10.154818711852714 0.5640083409991621 -6.239759628069397
H 9.6334005383231 1.8359186937119556 -5.575002232040545
O 1.393192126319797 0.4230887202509468 -6.34086767104384
H 2.2760812533478285 0.8212476270724047 -6.31014909043823
H 1.2163447665214226 0.31866737617975627 -7.287854016528668
O -2.918225040585602 -9.166977545647136 0.9337357192082338
H -2.8349929770192372 -9.032254491585245 -0.022239949519126334
H -2.2280179128851914 -8.600968192677035 1.310842438217479
O 4.815042372274236 1.9157938604384874 4.0744479688166315
H 4.822614674291593 2.524535852489211 3.3205625635617775
H 4.607231488975182 2.483579249370653 4.831677348329613
O 10.575544893571038 -7.847627611324951 -2.138603030728889
H 11.40323692422264 -8.218063024669284 -1.7970318612250173
H 10.384251087870803 -8.385048249271664 -2.9218958764192267
C -7.816855785577594 8.258689719924618 1.479527617973484
O -8.498273104283957 7.2748098940703585 1.5011882584077938
O -7.135438466871231 9.242569545778878 1.4578669775391733