146

C -5.3564454929577465 1.0091607042253532 -0.0734429577464788
C -4.079135492957747 0.16955070422535368 -0.19788295774647868
C -4.333545492957747 -1.2789292957746463 0.3017270422535212
C -3.1403854929577464 -2.1745492957746464 0.7330270422535212
C -2.905235492957746 0.902300704225353 0.41966704225352136
C -2.7423854929577463 1.056130704225354 1.8024770422535212
C -1.8861754929577463 1.3499307042253532 -0.4326129577464788
C -1.5304554929577463 1.5279207042253526 2.3254170422535214
H -3.5237954929577464 0.7301007042253529 2.484817042253521
C -0.6776454929577462 1.8010507042253527 0.08546704225352131
H -1.9759254929577463 1.2426607042253535 -1.5115229577464788
C -0.4680254929577463 1.8513207042253539 1.4698070422535212
H -1.3950654929577464 1.5446707042253527 3.404047042253521
H 0.1461845070422536 1.9972507042253538 -0.6030529577464789
C -1.8679654929577463 -2.0866092957746467 -0.08765295774647863
C -0.6628654929577462 -1.814079295774647 0.5787970422535212
C -1.8438954929577462 -2.213429295774647 -1.4808029577464787
C 0.5129345070422537 -1.5763292957746469 -0.13022295774647863
H -0.6401854929577462 -1.7032692957746463 1.6609470422535213
C -0.6547954929577462 -1.9962392957746466 -2.1933129577464787
H -2.7578654929577464 -2.4351492957746466 -2.026182957746479
C 0.5308845070422537 -1.645769295774647 -1.5261029577464789
H 1.4044045070422537 -1.2610992957746463 0.41551704225352126
H -0.6795654929577464 -2.0467992957746466 -3.2793129577464786
C 1.7843245070422535 -1.2521692957746469 -2.2771629577464787
H 1.4981245070422535 -0.9384492957746469 -3.290282957746479
H 2.241984507042254 -0.38631929577464685 -1.8135029577464787
C 0.9385645070422537 2.0647807042253534 1.9815670422535212
H 1.0508945070422537 1.5807407042253532 2.9609770422535213
H 1.6053245070422537 1.5496207042253536 1.3096170422535214
C 3.9676945070422533 -1.6881692957746468 -3.314052957746479
H 4.795084507042254 -2.398849295774647 -3.4044129577464783
H 3.548404507042253 -1.4816192957746468 -4.303802957746479
H 4.307714507042253 -0.7637192957746466 -2.851282957746479
C 2.344694507042253 -3.565079295774647 -3.101282957746479
H 1.6334345070422536 -4.047909295774646 -2.4251929577464786
H 1.8561845070422536 -3.293109295774647 -4.041792957746479
H 3.1808045070422537 -4.243519295774647 -3.298122957746479
C 3.5156645070422536 -2.648489295774647 -1.1110629577464786
H 3.9311845070422535 -1.748249295774647 -0.6771029577464787
H 2.767184507042254 -3.1044092957746465 -0.45972295774647876
H 4.319224507042254 -3.371819295774647 -1.2863129577464787
C 2.963994507042253 3.381090704225353 2.401027042253521
H 3.3337945070422537 4.369820704225353 2.6912870422535216
H 3.120994507042253 2.671350704225353 3.2183370422535216
H 3.4665445070422534 3.0664207042253535 1.4881370422535212
C 1.2973745070422538 4.282440704225354 0.8488370422535213
H 1.7592145070422538 3.7367207042253527 0.02653704225352116
H 0.23311450704225378 4.4484607042253534 0.6605570422535213
H 1.7921845070422535 5.251370704225354 0.9736770422535213
C 0.7724845070422537 4.194670704225353 3.2772470422535216
H -0.2956954929577462 4.278220704225354 3.057857042253521
H 0.9298945070422537 3.612620704225354 4.190337042253521
H 1.2046345070422537 5.193640704225353 3.3918370422535213
N 2.876084507042253 -2.324759295774647 -2.4576629577464786
N 1.4527845070422536 3.504690704225353 2.1388470422535213
C -3.593905492957746 -3.637819295774647 0.8297870422535213
H -2.8952554929577463 -1.8680692957746468 1.7595270422535212
H -5.022615492957747 -1.2402792957746467 1.1579970422535213
H -4.898275492957747 -1.7933092957746464 -0.48931295774647876
H -3.883675492957746 0.07871070422535364 -1.2758929577464788
H -3.8751654929577466 -4.038529295774646 -0.1505529577464788
H -4.4603554929577465 -3.7321892957746465 1.4932570422535212
H -2.7953554929577464 -4.271929295774647 1.2313670422535212
H -5.648775492957746 1.147700704225353 0.9733970422535213
H -6.189795492957747 0.5254307042253537 -0.5943629577464788
H -5.2178854929577465 2.002970704225354 -0.5139729577464787
C 3.6710445070422537 1.0263707042253536 -0.27764295774647874
O 2.7356545070422538 1.6631507042253526 -0.7327029577464788
O 3.650814507042253 0.3883007042253537 0.7790570422535212
O 4.756604507042254 0.8696707042253538 -0.8334829577464786
O 12.800395037262986 -4.118768874978164 3.274634301963955
H 13.635510877472576 -3.804596602044972 2.896686325053081
H 12.128021014619723 -3.5665985837960306 2.8480395440140267
O 5.673949452194602 -10.400941933577691 -3.0708215499752387
H 6.472383500702884 -10.92338973317628 -3.2396964260736874
H 5.754227144946075 -10.145130404003119 -2.139651373432187
O -9.018577252090534 -0.006186901652247556 4.10089474146683
H -9.218642547190093 -0.3789290303259456 4.972677134101899
H -8.050474580954749 -0.013400710958178852 4.059820133799142
O 0.3192485411217003 -7.839746567373314 2.3967579455204335
H -0.060486260710300055 -7.704144624463026 3.2778827665625867
H 1.2754454653314138 -7.781199701692335 2.5424344740032874
O -0.6692288599824396 11.151944086638842 -0.461722499404702
H -0.3810017583195817 11.50708760785791 0.39254067673199167
H -0.21524825255577507 10.298247274010821 -0.5254822397529209
O -6.761017606236833 3.500486582287189 2.8875284654520113
H -6.956445703091642 3.685861446496486 1.9567162526082533
H -7.633026350028494 3.3615538977896926 3.286602899899029
O -6.565373585887507 3.163521389026659 -5.835222135543812
H -6.669886336180898 3.2207435897773804 -6.796871791950633
H -5.617325858187774 3.305681648080968 -5.693949664591453
O -3.191758391376268 3.8258886601804227 -3.305848278832178
H -3.1886691122577284 4.02460917478364 -4.254251131174135
H -2.8051669212379555 4.616247817949203 -2.8998416517343903
O 9.7339089719408 -7.779943998267941 8.450277085928745
H 9.709020141217065 -8.628647606080005 8.917235423569258
H 9.458203553547115 -8.001046024643463 7.548023041603644
O 6.4464345489542225 1.9484827812378693 7.675190349028951
H 6.089790328974734 1.7858008271824728 8.56136574875518
H 7.393091408263564 1.7626512116235404 7.766126385654961
O -10.074815663102394 -6.661917593177627 -3.3786314239047965
H -10.890345342809628 -6.813015304162994 -2.877584340137614
H -10.107159323850906 -5.718998670797692 -3.5995833139787403
O 5.043682357869018 2.018311048730929 -6.355769784116495
H 4.900247726667922 1.8805555751065028 -7.3041459188640525
H 5.474788885831673 2.8847963488408634 -6.307683085941427
O -9.757942759057428 5.890740143563048 9.099160696247615
H -9.914655404597077 5.742446901326771 10.043839275413578
H -8.792161067394876 5.904247010160425 9.021409600408786
O -4.232916415979116 -13.165771205699436 4.759371931163131
H -4.198545288243717 -13.670563143436318 5.585792575916177
H -4.8443773722237875 -12.439657009839003 4.953885729795277
O 0.6388568671695902 5.923096582808705 9.674868727341966
H 1.550021468273153 5.862895911431139 9.35064302545904
H 0.5727692956538362 5.2049079764302295 10.3220159307349
O 7.680326406492856 -0.25231159688765437 1.8991393522326074
H 6.927201667229639 -0.5715679857265088 1.3796724695583733
H 8.297663706690567 -0.9992093246991098 1.8997608622363042
O -7.135690119881302 5.811995473242872 9.563598735824218
H -6.739104373828442 6.4203026239183245 8.921999551469368
H -6.586604294862775 5.015976962307398 9.50178262698684
O -8.127688804911257 -5.697758907091989 -5.9577218540724886
H -8.132100176679906 -4.990013463445544 -5.295872714391235
H -7.790777743204927 -5.267701835358286 -6.758036664538811
O -1.3090139736968442 -4.218832657510276 -7.855419448140237
H -1.5412057143374511 -4.545432073306434 -6.973156916871968
H -0.9174940953492507 -3.3485429693412905 -7.687282635319801
O 0.14931832819854446 -0.17528141324844515 -9.226632542953602
H 0.37618731963825447 -0.2227145892859843 -10.16750868327927
H -0.5419437371329807 -0.8456676577396687 -9.118461453791353
O 8.768784770955435 11.229895184841332 -1.989310069527606
H 9.016572856753864 11.882368000538206 -2.6615062062413966
H 9.605588631152226 10.796087392134506 -1.7645167358929519
O 7.138765694172499 -12.219003913959135 -6.555153760742136
H 7.671741711281813 -12.480240720397312 -7.321090607386998
H 7.055006609842794 -13.034847597884879 -6.039067097970539
O 8.936933567184843 -2.806517506477644 -4.882756555221057
H 8.643535637534056 -2.7711203565898446 -5.8055956818062135
H 8.590933596860623 -3.6519138324114793 -4.559413058405039
O -0.3222056131693831 -12.259857244842339 5.432207170020528
H -0.24806098363938656 -12.00469822397455 4.5003467701313316
H -0.917585998138819 -11.595314720186224 5.810185177869295
C 10.889913825780894 -6.438731946578621 6.812217939956373
O 9.948803298784636 -7.14295988651938 6.585960913803326
O 11.831024352777153 -5.734504006637861 7.038474966109419