146

C -5.3564454929577465 1.0091607042253532 -0.0734429577464788
C -4.079135492957747 0.16955070422535368 -0.19788295774647868
C -4.333545492957747 -1.2789292957746463 0.3017270422535212
C -3.1403854929577464 -2.1745492957746464 0.7330270422535212
C -2.905235492957746 0.902300704225353 0.41966704225352136
C -2.7423854929577463 1.056130704225354 1.8024770422535212
C -1.8861754929577463 1.3499307042253532 -0.4326129577464788
C -1.5304554929577463 1.5279207042253526 2.3254170422535214
H -3.5237954929577464 0.7301007042253529 2.484817042253521
C -0.6776454929577462 1.8010507042253527 0.08546704225352131
H -1.9759254929577463 1.2426607042253535 -1.5115229577464788
C -0.4680254929577463 1.8513207042253539 1.4698070422535212
H -1.3950654929577464 1.5446707042253527 3.404047042253521
H 0.1461845070422536 1.9972507042253538 -0.6030529577464789
C -1.8679654929577463 -2.0866092957746467 -0.08765295774647863
C -0.6628654929577462 -1.814079295774647 0.5787970422535212
C -1.8438954929577462 -2.213429295774647 -1.4808029577464787
C 0.5129345070422537 -1.5763292957746469 -0.13022295774647863
H -0.6401854929577462 -1.7032692957746463 1.6609470422535213
C -0.6547954929577462 -1.9962392957746466 -2.1933129577464787
H -2.7578654929577464 -2.4351492957746466 -2.026182957746479
C 0.5308845070422537 -1.645769295774647 -1.5261029577464789
H 1.4044045070422537 -1.2610992957746463 0.41551704225352126
H -0.6795654929577464 -2.0467992957746466 -3.2793129577464786
C 1.7843245070422535 -1.2521692957746469 -2.2771629577464787
H 1.4981245070422535 -0.9384492957746469 -3.290282957746479
H 2.241984507042254 -0.38631929577464685 -1.8135029577464787
C 0.9385645070422537 2.0647807042253534 1.9815670422535212
H 1.0508945070422537 1.5807407042253532 2.9609770422535213
H 1.6053245070422537 1.5496207042253536 1.3096170422535214
C 3.9676945070422533 -1.6881692957746468 -3.314052957746479
H 4.795084507042254 -2.398849295774647 -3.4044129577464783
H 3.548404507042253 -1.4816192957746468 -4.303802957746479
H 4.307714507042253 -0.7637192957746466 -2.851282957746479
C 2.344694507042253 -3.565079295774647 -3.101282957746479
H 1.6334345070422536 -4.047909295774646 -2.4251929577464786
H 1.8561845070422536 -3.293109295774647 -4.041792957746479
H 3.1808045070422537 -4.243519295774647 -3.298122957746479
C 3.5156645070422536 -2.648489295774647 -1.1110629577464786
H 3.9311845070422535 -1.748249295774647 -0.6771029577464787
H 2.767184507042254 -3.1044092957746465 -0.45972295774647876
H 4.319224507042254 -3.371819295774647 -1.2863129577464787
C 2.963994507042253 3.381090704225353 2.401027042253521
H 3.3337945070422537 4.369820704225353 2.6912870422535216
H 3.120994507042253 2.671350704225353 3.2183370422535216
H 3.4665445070422534 3.0664207042253535 1.4881370422535212
C 1.2973745070422538 4.282440704225354 0.8488370422535213
H 1.7592145070422538 3.7367207042253527 0.02653704225352116
H 0.23311450704225378 4.4484607042253534 0.6605570422535213
H 1.7921845070422535 5.251370704225354 0.9736770422535213
C 0.7724845070422537 4.194670704225353 3.2772470422535216
H -0.2956954929577462 4.278220704225354 3.057857042253521
H 0.9298945070422537 3.612620704225354 4.190337042253521
H 1.2046345070422537 5.193640704225353 3.3918370422535213
N 2.876084507042253 -2.324759295774647 -2.4576629577464786
N 1.4527845070422536 3.504690704225353 2.1388470422535213
C -3.593905492957746 -3.637819295774647 0.8297870422535213
H -2.8952554929577463 -1.8680692957746468 1.7595270422535212
H -5.022615492957747 -1.2402792957746467 1.1579970422535213
H -4.898275492957747 -1.7933092957746464 -0.48931295774647876
H -3.883675492957746 0.07871070422535364 -1.2758929577464788
H -3.8751654929577466 -4.038529295774646 -0.1505529577464788
H -4.4603554929577465 -3.7321892957746465 1.4932570422535212
H -2.7953554929577464 -4.271929295774647 1.2313670422535212
H -5.648775492957746 1.147700704225353 0.9733970422535213
H -6.189795492957747 0.5254307042253537 -0.5943629577464788
H -5.2178854929577465 2.002970704225354 -0.5139729577464787
C 3.6710445070422537 1.0263707042253536 -0.27764295774647874
O 2.7356545070422538 1.6631507042253526 -0.7327029577464788
O 3.650814507042253 0.3883007042253537 0.7790570422535212
O 4.756604507042254 0.8696707042253538 -0.8334829577464786
O 1.0856929120040264 -11.234575974917925 0.6872660754441647
H 1.051016867244348 -11.230994515501123 1.6556420881418523
H 0.2955901598813844 -10.739774799641053 0.42293412063571906
O -2.2090969831843466 3.5726118473539468 -6.611615902286291
H -1.318045136352379 3.2300763318581183 -6.777939032912636
H -2.7735757804829646 2.7860512007517917 -6.652211233509284
O -9.420684267516913 -4.635284105611653 0.57399821239303
H -9.418108791084059 -4.642170664667284 -0.3949771738400354
H -10.307033882556354 -4.949319186115792 0.8079389579509402
O 7.952973682219852 -4.892183470626659 6.239333289970982
H 7.954063983595406 -4.1268449082637995 5.645007576995965
H 8.85733744387782 -4.920487933434439 6.586157436023434
O -9.769077012318107 1.5670868193589027 6.963276035611102
H -9.78421723785781 2.530187467511264 7.068989194674247
H -10.675992711941689 1.294761130535961 7.168956801078793
O -0.0012606877172296471 3.7318663321883325 -13.458484329974764
H -0.3746735002455175 3.328145312334603 -14.256318627600516
H 0.21294985528723265 2.975607005287593 -12.891785452226294
O 9.095308324961525 3.5228900274769517 -5.414479539183821
H 8.900101334088735 4.368265476503669 -4.982968313608787
H 9.5195082953514 2.9977294623408985 -4.719337316147981
O 2.1610944947896273 -1.0847687623819215 2.8280411537658243
H 2.1822143990312624 -1.1807227401798168 3.792050562791269
H 2.077790077176909 -1.9942013754661971 2.5040741175338783
O -13.096633150245896 -2.654366236990649 -6.3613776723577695
H -13.03447924209615 -2.382647960846401 -5.4333294909518095
H -12.174366283320971 -2.780443033881882 -6.6306181072075985
O -12.621837038587037 -6.938272095399937 -1.94755399090627
H -13.319264427505416 -6.3766436258563735 -1.5772354033567817
H -11.814563343243982 -6.627628746767589 -1.510779638342325
O -1.2563895620817973 -6.94425545312977 4.039518812329771
H -2.1384038792487545 -7.344454098809658 4.06882999122949
H -1.0081301338110138 -6.856378903516809 4.972045976868577
O 6.3301574376827645 1.4272471153657227 5.2119816423984
H 6.38915273152795 1.4338061286016788 4.244798158487776
H 7.176629883369046 1.0503762945188644 5.4955565485309785
O 10.873745265868845 3.1832834251978155 -7.162758433889446
H 11.617370958342162 2.5620895023877264 -7.173068460921119
H 10.1818481983945 2.712028154250656 -6.674743206744924
O -4.4634793767695164 1.6323302704723681 9.34861097057844
H -4.649787626117748 2.277912194315203 10.046809060472834
H -4.292182940335914 2.177098202316707 8.565765279781594
O -0.8582844853331293 7.117574314500211 9.353679398061155
H -0.5303707812969773 7.410907608493704 10.2170423218888
H -1.2914754621083073 7.903645195392874 8.988439624551752
O 5.571675297456494 5.006210213458486 3.107091915485177
H 6.180048845067713 4.555751163060505 3.712018049307722
H 5.13943850679404 5.6721002077444975 3.662721123327599
O 3.209782302697268 2.596600260588136 7.979767362416716
H 3.7617084823078906 1.806851558928057 8.082926644047811
H 2.4623541374492808 2.291433543047173 7.44386965146872
O 3.6866984269340195 -4.788258972015443 3.457250031749573
H 4.137253146999138 -5.086122526269099 4.261765478571088
H 4.31581990373531 -4.98987289135624 2.7483636238848113
O -4.240077485087699 4.416959161225754 3.1047982792963356
H -4.331110062253927 4.332730833512381 4.065832105758799
H -5.144201166805284 4.308133544179605 2.7736196303287963
O 6.148452532876407 6.045709627084305 -8.111602731300293
H 6.484073838595789 6.889009677748952 -8.450970850893487
H 6.474145377589517 5.39119623183117 -8.747604563559364
O -1.0654217044085668 1.221392168215784 5.645591294417647
H -1.5463036096981404 0.4324307572903344 5.353598414135276
H -0.13550857733961452 0.9497423602294428 5.6248572107430075
O 6.440828484325123 4.798716858354423 8.700405731484693
H 6.575402020981934 4.650357137451742 9.648480999248472
H 6.476027536453209 3.909477011452169 8.317031937765641
O 0.7478227320548898 6.265276421418517 1.9086901104483227
H 0.6658159057280708 6.270895537474987 0.9431795393666034
H -0.02110437099273149 6.771051352232963 2.211848111923518
O -5.053171562368204 1.4254353653182812 6.276862420977003
H -4.387642521418638 1.889466149512559 6.806686810631533
H -4.570642212105751 0.6739484543474044 5.900837431016571
C 6.904571530318072 6.635039221450888 -0.5683646055545233
O 6.787501492963625 6.432386999024335 -1.7422661944449243
O 7.02164156767252 6.83769144387744 0.6055369833358778