146

C -5.3564454929577465 1.0091607042253532 -0.0734429577464788
C -4.079135492957747 0.16955070422535368 -0.19788295774647868
C -4.333545492957747 -1.2789292957746463 0.3017270422535212
C -3.1403854929577464 -2.1745492957746464 0.7330270422535212
C -2.905235492957746 0.902300704225353 0.41966704225352136
C -2.7423854929577463 1.056130704225354 1.8024770422535212
C -1.8861754929577463 1.3499307042253532 -0.4326129577464788
C -1.5304554929577463 1.5279207042253526 2.3254170422535214
H -3.5237954929577464 0.7301007042253529 2.484817042253521
C -0.6776454929577462 1.8010507042253527 0.08546704225352131
H -1.9759254929577463 1.2426607042253535 -1.5115229577464788
C -0.4680254929577463 1.8513207042253539 1.4698070422535212
H -1.3950654929577464 1.5446707042253527 3.404047042253521
H 0.1461845070422536 1.9972507042253538 -0.6030529577464789
C -1.8679654929577463 -2.0866092957746467 -0.08765295774647863
C -0.6628654929577462 -1.814079295774647 0.5787970422535212
C -1.8438954929577462 -2.213429295774647 -1.4808029577464787
C 0.5129345070422537 -1.5763292957746469 -0.13022295774647863
H -0.6401854929577462 -1.7032692957746463 1.6609470422535213
C -0.6547954929577462 -1.9962392957746466 -2.1933129577464787
H -2.7578654929577464 -2.4351492957746466 -2.026182957746479
C 0.5308845070422537 -1.645769295774647 -1.5261029577464789
H 1.4044045070422537 -1.2610992957746463 0.41551704225352126
H -0.6795654929577464 -2.0467992957746466 -3.2793129577464786
C 1.7843245070422535 -1.2521692957746469 -2.2771629577464787
H 1.4981245070422535 -0.9384492957746469 -3.290282957746479
H 2.241984507042254 -0.38631929577464685 -1.8135029577464787
C 0.9385645070422537 2.0647807042253534 1.9815670422535212
H 1.0508945070422537 1.5807407042253532 2.9609770422535213
H 1.6053245070422537 1.5496207042253536 1.3096170422535214
C 3.9676945070422533 -1.6881692957746468 -3.314052957746479
H 4.795084507042254 -2.398849295774647 -3.4044129577464783
H 3.548404507042253 -1.4816192957746468 -4.303802957746479
H 4.307714507042253 -0.7637192957746466 -2.851282957746479
C 2.344694507042253 -3.565079295774647 -3.101282957746479
H 1.6334345070422536 -4.047909295774646 -2.4251929577464786
H 1.8561845070422536 -3.293109295774647 -4.041792957746479
H 3.1808045070422537 -4.243519295774647 -3.298122957746479
C 3.5156645070422536 -2.648489295774647 -1.1110629577464786
H 3.9311845070422535 -1.748249295774647 -0.6771029577464787
H 2.767184507042254 -3.1044092957746465 -0.45972295774647876
H 4.319224507042254 -3.371819295774647 -1.2863129577464787
C 2.963994507042253 3.381090704225353 2.401027042253521
H 3.3337945070422537 4.369820704225353 2.6912870422535216
H 3.120994507042253 2.671350704225353 3.2183370422535216
H 3.4665445070422534 3.0664207042253535 1.4881370422535212
C 1.2973745070422538 4.282440704225354 0.8488370422535213
H 1.7592145070422538 3.7367207042253527 0.02653704225352116
H 0.23311450704225378 4.4484607042253534 0.6605570422535213
H 1.7921845070422535 5.251370704225354 0.9736770422535213
C 0.7724845070422537 4.194670704225353 3.2772470422535216
H -0.2956954929577462 4.278220704225354 3.057857042253521
H 0.9298945070422537 3.612620704225354 4.190337042253521
H 1.2046345070422537 5.193640704225353 3.3918370422535213
N 2.876084507042253 -2.324759295774647 -2.4576629577464786
N 1.4527845070422536 3.504690704225353 2.1388470422535213
C -3.593905492957746 -3.637819295774647 0.8297870422535213
H -2.8952554929577463 -1.8680692957746468 1.7595270422535212
H -5.022615492957747 -1.2402792957746467 1.1579970422535213
H -4.898275492957747 -1.7933092957746464 -0.48931295774647876
H -3.883675492957746 0.07871070422535364 -1.2758929577464788
H -3.8751654929577466 -4.038529295774646 -0.1505529577464788
H -4.4603554929577465 -3.7321892957746465 1.4932570422535212
H -2.7953554929577464 -4.271929295774647 1.2313670422535212
H -5.648775492957746 1.147700704225353 0.9733970422535213
H -6.189795492957747 0.5254307042253537 -0.5943629577464788
H -5.2178854929577465 2.002970704225354 -0.5139729577464787
C 3.6710445070422537 1.0263707042253536 -0.27764295774647874
O 2.7356545070422538 1.6631507042253526 -0.7327029577464788
O 3.650814507042253 0.3883007042253537 0.7790570422535212
O 4.756604507042254 0.8696707042253538 -0.8334829577464786
O 1.8986284731591638 -12.872210936097527 -7.349834459660123
H 1.6115541335017003 -13.795293245776584 -7.416727882115627
H 2.864535729255211 -12.93058132048049 -7.29906030139049
O 5.516914865024037 -1.6049803004314014 3.048272308593247
H 4.919702599036314 -1.1003402800235058 2.4758709493561044
H 6.11116856728983 -2.054123177778515 2.428518198181905
O -8.881299042007306 2.6266325309809355 -6.701948848747202
H -8.823606869388515 2.8779152181472067 -7.636023782170116
H -8.151435536274168 3.1082825727612904 -6.284486940841924
O 9.2071571121928 7.570120750975404 3.3490539304906792
H 8.675747304432393 7.53941631196046 4.158762650056442
H 9.9960879729151 8.070798630373126 3.605708761697438
O 4.3689053560781685 -10.27172001579472 3.7551944275073605
H 4.905816812814851 -9.499212194761055 3.522976618184483
H 4.893686660087206 -10.726993387502183 4.430688827392874
O -11.849514821741215 0.44105502867306523 0.147144966263971
H -12.194535967572634 0.6384694265198974 1.030861731609039
H -12.595535573637349 0.6276161101851399 -0.4424395865402664
O 3.63122816007495 0.33326707132990674 9.638526040357528
H 3.7180079180762164 0.48876592352613474 10.591026296245627
H 2.7689886253808584 -0.09987431972881264 9.549680869063678
O 5.140698926240299 9.288533646293764 -9.11715669157238
H 5.36328538994511 9.350465948435094 -10.058213019868864
H 4.287413357756355 8.829420085615489 -9.108188898178994
O 6.639786731255243 10.264217285888872 7.992107453861877
H 6.28896323264574 10.261776333229989 8.89537057802532
H 6.14231818835554 10.968323092156195 7.549702654265526
O -6.48195523309256 9.45616010257599 -5.330971403007206
H -6.19900410186212 9.974913163870315 -4.562986197659355
H -7.330909111390928 9.077323979493467 -5.057617331023698
O 0.4260103575493521 9.137742481206057 -8.87824534467795
H 0.0002779587235903769 8.267922758618646 -8.911904395288783
H 1.323335732610444 8.971909211766251 -9.204233752935629
O -6.150129103973572 5.622603185581482 3.8647276977496494
H -5.819151708466386 5.787346125141111 2.9690262494821287
H -6.491171732955968 6.483488777343402 4.150258549696519
O -10.917046536791892 -5.092920109822241 -2.319171600498401
H -11.39662816025741 -5.225833410174664 -3.1506178572844954
H -10.647059133680168 -5.986519849355838 -2.059271134999634
O 1.2227188400527909 6.15153763741125 -10.669710076331693
H 1.0717349917759522 7.044032498058574 -11.015577331471052
H 1.0798451984074107 5.576200883466857 -11.436219493353896
O 9.362139220890716 -2.4917775357372376 -9.652723855564899
H 9.793807843938492 -2.324890633846096 -10.504062988198434
H 9.59792603917192 -3.4087532752258216 -9.446515189854189
O -9.073707320628829 -4.105861713204031 -7.908541730033553
H -8.110523514712861 -4.211659688585036 -7.915690249216897
H -9.268786539561543 -3.7988087362639638 -7.010418958919912
O -0.8274718398152281 -7.8362142597105775 1.3090465881954212
H -0.7943345051590383 -7.747808462070168 2.273439500288541
H -0.9026360907653053 -6.923371045357661 0.9927721097926423
O 2.7579186684810764 6.390019959797068 7.367599963137467
H 2.119783853946549 5.661472635916917 7.336453338182961
H 3.3145054834058634 6.181100467387484 8.13279647870925
O 10.15295242790154 11.99073648002111 0.45763152912511806
H 10.081615830519963 12.887382363340395 0.8180543456900522
H 9.28756661893668 11.832187119278807 0.05151400161560704
O -8.171036215677283 -1.9127835307253438 -5.312801529943289
H -8.965574903555192 -1.3991217576970443 -5.103452029598353
H -7.449076881149848 -1.3955408321220937 -4.925249398830156
O -8.097149771043943 1.7696136604018253 -11.66003803548423
H -8.085972357650236 1.979149962948972 -12.606049113772798
H -7.51413588563797 2.4357106509994884 -11.265866051649045
O -1.269725351176939 -4.901727667835373 4.5239751817564
H -1.6113920152547614 -3.995485950924788 4.554913799839445
H -2.0401479845812625 -5.4339448119647304 4.274664488577911
O 2.281604167050266 -6.716712928040875 -4.726370886752835
H 1.6852083964090778 -7.4644529678283025 -4.570922263214377
H 3.0752112210666764 -6.940565976549526 -4.217411555579139
O 2.659746489003375 -8.323970030596502 11.227391962979777
H 2.3945593203045794 -8.407254439535693 12.155673617266432
H 1.8374367046457731 -8.46747066042557 10.735278020799296
C 3.7121771442308726 -9.388898746633458 6.938042476820635
O 3.8324436481741873 -9.390427907966203 8.128988271974585
O 3.591910640287557 -9.387369585300712 5.747096681666686