146

C -5.3564454929577465 1.0091607042253532 -0.0734429577464788
C -4.079135492957747 0.16955070422535368 -0.19788295774647868
C -4.333545492957747 -1.2789292957746463 0.3017270422535212
C -3.1403854929577464 -2.1745492957746464 0.7330270422535212
C -2.905235492957746 0.902300704225353 0.41966704225352136
C -2.7423854929577463 1.056130704225354 1.8024770422535212
C -1.8861754929577463 1.3499307042253532 -0.4326129577464788
C -1.5304554929577463 1.5279207042253526 2.3254170422535214
H -3.5237954929577464 0.7301007042253529 2.484817042253521
C -0.6776454929577462 1.8010507042253527 0.08546704225352131
H -1.9759254929577463 1.2426607042253535 -1.5115229577464788
C -0.4680254929577463 1.8513207042253539 1.4698070422535212
H -1.3950654929577464 1.5446707042253527 3.404047042253521
H 0.1461845070422536 1.9972507042253538 -0.6030529577464789
C -1.8679654929577463 -2.0866092957746467 -0.08765295774647863
C -0.6628654929577462 -1.814079295774647 0.5787970422535212
C -1.8438954929577462 -2.213429295774647 -1.4808029577464787
C 0.5129345070422537 -1.5763292957746469 -0.13022295774647863
H -0.6401854929577462 -1.7032692957746463 1.6609470422535213
C -0.6547954929577462 -1.9962392957746466 -2.1933129577464787
H -2.7578654929577464 -2.4351492957746466 -2.026182957746479
C 0.5308845070422537 -1.645769295774647 -1.5261029577464789
H 1.4044045070422537 -1.2610992957746463 0.41551704225352126
H -0.6795654929577464 -2.0467992957746466 -3.2793129577464786
C 1.7843245070422535 -1.2521692957746469 -2.2771629577464787
H 1.4981245070422535 -0.9384492957746469 -3.290282957746479
H 2.241984507042254 -0.38631929577464685 -1.8135029577464787
C 0.9385645070422537 2.0647807042253534 1.9815670422535212
H 1.0508945070422537 1.5807407042253532 2.9609770422535213
H 1.6053245070422537 1.5496207042253536 1.3096170422535214
C 3.9676945070422533 -1.6881692957746468 -3.314052957746479
H 4.795084507042254 -2.398849295774647 -3.4044129577464783
H 3.548404507042253 -1.4816192957746468 -4.303802957746479
H 4.307714507042253 -0.7637192957746466 -2.851282957746479
C 2.344694507042253 -3.565079295774647 -3.101282957746479
H 1.6334345070422536 -4.047909295774646 -2.4251929577464786
H 1.8561845070422536 -3.293109295774647 -4.041792957746479
H 3.1808045070422537 -4.243519295774647 -3.298122957746479
C 3.5156645070422536 -2.648489295774647 -1.1110629577464786
H 3.9311845070422535 -1.748249295774647 -0.6771029577464787
H 2.767184507042254 -3.1044092957746465 -0.45972295774647876
H 4.319224507042254 -3.371819295774647 -1.2863129577464787
C 2.963994507042253 3.381090704225353 2.401027042253521
H 3.3337945070422537 4.369820704225353 2.6912870422535216
H 3.120994507042253 2.671350704225353 3.2183370422535216
H 3.4665445070422534 3.0664207042253535 1.4881370422535212
C 1.2973745070422538 4.282440704225354 0.8488370422535213
H 1.7592145070422538 3.7367207042253527 0.02653704225352116
H 0.23311450704225378 4.4484607042253534 0.6605570422535213
H 1.7921845070422535 5.251370704225354 0.9736770422535213
C 0.7724845070422537 4.194670704225353 3.2772470422535216
H -0.2956954929577462 4.278220704225354 3.057857042253521
H 0.9298945070422537 3.612620704225354 4.190337042253521
H 1.2046345070422537 5.193640704225353 3.3918370422535213
N 2.876084507042253 -2.324759295774647 -2.4576629577464786
N 1.4527845070422536 3.504690704225353 2.1388470422535213
C -3.593905492957746 -3.637819295774647 0.8297870422535213
H -2.8952554929577463 -1.8680692957746468 1.7595270422535212
H -5.022615492957747 -1.2402792957746467 1.1579970422535213
H -4.898275492957747 -1.7933092957746464 -0.48931295774647876
H -3.883675492957746 0.07871070422535364 -1.2758929577464788
H -3.8751654929577466 -4.038529295774646 -0.1505529577464788
H -4.4603554929577465 -3.7321892957746465 1.4932570422535212
H -2.7953554929577464 -4.271929295774647 1.2313670422535212
H -5.648775492957746 1.147700704225353 0.9733970422535213
H -6.189795492957747 0.5254307042253537 -0.5943629577464788
H -5.2178854929577465 2.002970704225354 -0.5139729577464787
C 3.6710445070422537 1.0263707042253536 -0.27764295774647874
O 2.7356545070422538 1.6631507042253526 -0.7327029577464788
O 3.650814507042253 0.3883007042253537 0.7790570422535212
O 4.756604507042254 0.8696707042253538 -0.8334829577464786
O -7.608813531226713 -0.2890984760624957 8.573493576860274
H -7.67532600286189 -0.22928896898538786 7.6086276427118165
H -7.665716269223097 0.6318072348494241 8.869562309282873
O -5.04495883234377 4.121884472275893 12.809580751372478
H -4.62480286735754 4.257901179306421 13.672097868533095
H -4.734874883913836 4.870077611616673 12.27758740980748
O 6.813722935460783 -4.282159701646005 -11.274797989569048
H 6.7161057170218035 -5.126985423240647 -11.73924145835328
H 5.9906234660482385 -4.195649108290298 -10.77082862047006
O 4.42878314412427 8.200998629023823 7.351277472050308
H 4.703631247890917 8.110140154216634 8.276031825547273
H 4.097934001199096 7.320648983573795 7.117856627476209
O -5.132891942270678 -0.7727387719055927 9.024788288818225
H -5.071079611380774 -0.8265704290284459 9.990318581114312
H -4.313980717545155 -1.187430732312849 8.714341951600131
O 1.5016115345652723 -0.11578164777131272 6.208600566262745
H 0.7361837901302313 -0.7099879216569551 6.211175255375492
H 1.1108609071352384 0.7694757668673935 6.259543684445942
O 4.478804300644558 -8.505608699825205 4.569773134284195
H 4.0587907456680234 -8.428445203021736 5.439601718142552
H 3.8549343990762823 -8.07078771657578 3.9692075652218373
O -11.992390849655548 -1.5539953033325742 5.075655964097757
H -12.17870678835607 -1.7647288116077078 6.002934302233723
H -11.173067708817172 -1.0379722663198765 5.1129622699847035
O -9.447154100277423 1.4530874310797737 -1.913409070623636
H -10.089724812608772 2.0316082468870422 -1.4759346116758305
H -9.807111115985217 1.33574797257927 -2.805386840874413
O 5.70888828693923 0.49577308884825455 -5.2040910386633925
H 5.853318842728726 1.45366915709111 -5.180803834039026
H 6.602697064394276 0.1255687686240371 -5.259014393728784
O -1.6916145784448497 9.559606674745417 0.758632683626931
H -2.4389829298814134 9.5619152754267 0.14186483870155842
H -2.0698232920665443 9.21944707730571 1.5833820767823776
O 2.920421085265921 -5.110773616448836 -5.641795940983536
H 2.587638301981734 -5.662048532083865 -4.917697229866589
H 3.477425587783912 -4.453348249447108 -5.1985129441323945
O -2.069823758536799 -7.390175077190531 -2.962865702617804
H -1.725742041932906 -7.604380390250038 -3.843031149028874
H -1.8730236726952225 -6.447211848963553 -2.8577371112427423
O 8.681559760864834 -5.858650881269714 8.085546255316581
H 9.012953975700237 -6.738971752222906 8.318313081642504
H 8.551175260241092 -5.42374777447727 8.94159596999405
O 3.6911611483890754 2.2337801611487382 9.436346551477506
H 2.9548192643490254 2.3699663875287205 10.051343542082119
H 3.296500217231968 1.734620882199521 8.705562925527182
O -3.4030287803544788 -5.895883723975807 -5.797757087250596
H -3.2994117452831637 -5.431308803139033 -4.953718575171592
H -2.7902192003465798 -5.438898725316207 -6.39323258964396
O 6.888219863861169 -3.5848079078713595 3.1315130580410724
H 7.186142034918657 -3.4885538709417077 2.2144825802121515
H 6.864505956811466 -2.675875010459181 3.4665363153148605
O -4.015027083444241 2.6873475250739967 5.849188428560398
H -3.820253699528757 2.2845603964018375 6.708719239406728
H -4.618951148748723 3.414381352380322 6.062869222265455
O 1.8377059709815313 9.167576158742998 0.4368537983018199
H 2.4038008944894984 8.405566408488841 0.6313918022910352
H 2.03772741616729 9.377778943343696 -0.4876829262861828
O 0.554841570102532 -3.0981027026742796 6.732747544938547
H 0.624919485555262 -3.4663696593237043 5.839195145072725
H 1.466520393549325 -3.1052270120462486 7.061004930833584
O 4.040568930986595 -6.229805042660825 -7.161450634594921
H 4.896097968902048 -5.989794332990058 -7.5480153528851375
H 4.2742804452424945 -6.666185701774429 -6.3284363533513215
O -7.734499061815208 -3.881134871627721 1.1931528636055075
H -8.02829971547284 -3.8415371293629614 2.11569313460612
H -8.383122972916425 -4.460313002852129 0.7655997574781375
O 4.422114874778714 4.468969177543512 8.329489528539886
H 4.204395287022864 4.642206078856122 9.25768913747701
H 3.7433186566518244 4.952973868459702 7.835589642198782
O 2.167532440392229 4.762859745421292 -7.24110488748246
H 2.9447581286252813 4.798280482236574 -7.818714580834398
H 1.7250034852224672 5.611625180274528 -7.391860665928116
C 5.447305314474974 -6.510716670638575 5.84772370437147
O 5.3424140718538515 -5.5800518055848 6.593162496946578
O 5.552196557096097 -7.441381535692351 5.102284911796362