146

C -5.3564454929577465 1.0091607042253532 -0.0734429577464788
C -4.079135492957747 0.16955070422535368 -0.19788295774647868
C -4.333545492957747 -1.2789292957746463 0.3017270422535212
C -3.1403854929577464 -2.1745492957746464 0.7330270422535212
C -2.905235492957746 0.902300704225353 0.41966704225352136
C -2.7423854929577463 1.056130704225354 1.8024770422535212
C -1.8861754929577463 1.3499307042253532 -0.4326129577464788
C -1.5304554929577463 1.5279207042253526 2.3254170422535214
H -3.5237954929577464 0.7301007042253529 2.484817042253521
C -0.6776454929577462 1.8010507042253527 0.08546704225352131
H -1.9759254929577463 1.2426607042253535 -1.5115229577464788
C -0.4680254929577463 1.8513207042253539 1.4698070422535212
H -1.3950654929577464 1.5446707042253527 3.404047042253521
H 0.1461845070422536 1.9972507042253538 -0.6030529577464789
C -1.8679654929577463 -2.0866092957746467 -0.08765295774647863
C -0.6628654929577462 -1.814079295774647 0.5787970422535212
C -1.8438954929577462 -2.213429295774647 -1.4808029577464787
C 0.5129345070422537 -1.5763292957746469 -0.13022295774647863
H -0.6401854929577462 -1.7032692957746463 1.6609470422535213
C -0.6547954929577462 -1.9962392957746466 -2.1933129577464787
H -2.7578654929577464 -2.4351492957746466 -2.026182957746479
C 0.5308845070422537 -1.645769295774647 -1.5261029577464789
H 1.4044045070422537 -1.2610992957746463 0.41551704225352126
H -0.6795654929577464 -2.0467992957746466 -3.2793129577464786
C 1.7843245070422535 -1.2521692957746469 -2.2771629577464787
H 1.4981245070422535 -0.9384492957746469 -3.290282957746479
H 2.241984507042254 -0.38631929577464685 -1.8135029577464787
C 0.9385645070422537 2.0647807042253534 1.9815670422535212
H 1.0508945070422537 1.5807407042253532 2.9609770422535213
H 1.6053245070422537 1.5496207042253536 1.3096170422535214
C 3.9676945070422533 -1.6881692957746468 -3.314052957746479
H 4.795084507042254 -2.398849295774647 -3.4044129577464783
H 3.548404507042253 -1.4816192957746468 -4.303802957746479
H 4.307714507042253 -0.7637192957746466 -2.851282957746479
C 2.344694507042253 -3.565079295774647 -3.101282957746479
H 1.6334345070422536 -4.047909295774646 -2.4251929577464786
H 1.8561845070422536 -3.293109295774647 -4.041792957746479
H 3.1808045070422537 -4.243519295774647 -3.298122957746479
C 3.5156645070422536 -2.648489295774647 -1.1110629577464786
H 3.9311845070422535 -1.748249295774647 -0.6771029577464787
H 2.767184507042254 -3.1044092957746465 -0.45972295774647876
H 4.319224507042254 -3.371819295774647 -1.2863129577464787
C 2.963994507042253 3.381090704225353 2.401027042253521
H 3.3337945070422537 4.369820704225353 2.6912870422535216
H 3.120994507042253 2.671350704225353 3.2183370422535216
H 3.4665445070422534 3.0664207042253535 1.4881370422535212
C 1.2973745070422538 4.282440704225354 0.8488370422535213
H 1.7592145070422538 3.7367207042253527 0.02653704225352116
H 0.23311450704225378 4.4484607042253534 0.6605570422535213
H 1.7921845070422535 5.251370704225354 0.9736770422535213
C 0.7724845070422537 4.194670704225353 3.2772470422535216
H -0.2956954929577462 4.278220704225354 3.057857042253521
H 0.9298945070422537 3.612620704225354 4.190337042253521
H 1.2046345070422537 5.193640704225353 3.3918370422535213
N 2.876084507042253 -2.324759295774647 -2.4576629577464786
N 1.4527845070422536 3.504690704225353 2.1388470422535213
C -3.593905492957746 -3.637819295774647 0.8297870422535213
H -2.8952554929577463 -1.8680692957746468 1.7595270422535212
H -5.022615492957747 -1.2402792957746467 1.1579970422535213
H -4.898275492957747 -1.7933092957746464 -0.48931295774647876
H -3.883675492957746 0.07871070422535364 -1.2758929577464788
H -3.8751654929577466 -4.038529295774646 -0.1505529577464788
H -4.4603554929577465 -3.7321892957746465 1.4932570422535212
H -2.7953554929577464 -4.271929295774647 1.2313670422535212
H -5.648775492957746 1.147700704225353 0.9733970422535213
H -6.189795492957747 0.5254307042253537 -0.5943629577464788
H -5.2178854929577465 2.002970704225354 -0.5139729577464787
C 3.6710445070422537 1.0263707042253536 -0.27764295774647874
O 2.7356545070422538 1.6631507042253526 -0.7327029577464788
O 3.650814507042253 0.3883007042253537 0.7790570422535212
O 4.756604507042254 0.8696707042253538 -0.8334829577464786
O 8.103368142551215 1.9168647476015157 4.364968454052793
H 8.83036177975789 1.881133051814019 3.7253038120120125
H 8.304406699756152 1.2023960883147997 4.987929109081662
O 1.3209273794128558 10.329606730835973 4.368910364299635
H 1.9860503040315907 11.030706346907062 4.439890505125022
H 1.8121124760952056 9.519517464797165 4.572514210397534
O -4.253879803549454 1.8940170300415222 7.680950264515467
H -4.3481403385477755 1.932392725125324 8.644594189660365
H -5.069805652742627 2.2983500618276023 7.349677337271062
O 2.7494963565367807 -1.8642737125753535 9.174553504637736
H 3.163334572835268 -2.089830327928632 8.327895662944139
H 2.1312736110383903 -1.1525005964221142 8.950630275896414
O -4.664389269500777 0.3463532210101654 5.562052045249006
H -5.2880494835859455 0.6528210429958352 4.886705639058373
H -5.225764661146216 -0.0996226127178792 6.213914891011445
O 8.389939514089066 -6.697874850042139 -0.052087339400590515
H 7.803961575974309 -6.355212289528648 -0.7435926413073219
H 7.845029875140828 -6.67524552399871 0.7488641842786641
O 8.541128134011192 -2.229738219433459 4.280670172045847
H 8.35479429279451 -1.3822920622156816 4.712042478915748
H 9.505633282617747 -2.2380286256392794 4.187809891105145
O 5.460308481945696 -6.724132000028645 -2.785615861718941
H 5.256945709108921 -7.663041310092099 -2.6588868318942565
H 5.216344027842638 -6.554212874578328 -3.7078798045468027
O 10.144361369061095 3.1305845988877423 -0.9425069255143788
H 10.739206196709784 3.521259233591824 -1.6001544889694825
H 10.591798984991327 2.3124881677468214 -0.6789168014483287
O 4.301931173743514 5.1139629401174815 5.954328458166926
H 5.0688830315519535 4.58459525711932 6.219888358945155
H 3.976626242412154 5.488637704623056 6.786648989449311
O 11.89450119431104 -3.0218475310359274 -2.781927588067223
H 11.679407557145371 -3.787042702510814 -3.336164390979448
H 11.032462091210334 -2.7120042748447593 -2.4659407440085155
O 5.165724614020892 -10.806797287805878 5.14748047770607
H 4.911380962325485 -11.684895257698043 5.468760136280194
H 5.571866036337913 -10.383884368681302 5.918943861293286
O 4.494295843628848 -6.872246214792391 2.7863923690122396
H 4.565734568935065 -7.237643445662355 1.8917702537595567
H 4.944232004023995 -7.525700506071539 3.342734786123983
O 11.255573029080594 3.926757842807104 -4.988089316560599
H 11.143638109757982 3.2683108264447185 -4.286031300881186
H 12.206605208572991 4.112478382273034 -4.98532904656871
O -9.088263102216628 -10.381367672254783 -0.5967110095347357
H -9.441846625598124 -10.814033986476154 0.19496184552044538
H -9.735226209088122 -10.591294901906116 -1.2868785550612554
O -4.099877055502955 2.642655314967825 -9.920557077109963
H -4.29311416865733 2.811469413236853 -10.854970569748732
H -3.218937295023977 2.239226537493514 -9.932898236408084
O -8.324406075439835 -1.5055567776534795 -6.500620215524348
H -8.602014466016724 -1.2081031232816342 -5.621175924007172
H -8.374314635993343 -0.7054127000452468 -7.044900047000719
O -1.6949108522598113 0.42280121634122914 -6.074859724110852
H -2.3470984610487875 1.0488995132560268 -5.726119702830659
H -1.7316582477538427 0.5564614146115323 -7.033893886496504
O -1.5913177241700769 2.532387791034755 -5.654421606097615
H -0.8723849557910472 3.1479327784437903 -5.862285503700052
H -1.3091080415525915 2.113588904122155 -4.82742273568865
O 3.358704292482679 -1.0266596353592168 4.643510494029026
H 2.8179545889037696 -1.520531228620753 5.278055972579329
H 2.926330709055931 -1.1886062077470056 3.791578374463998
O -2.1728210431571418 7.021290548359499 5.629216530732288
H -1.9703394748872392 6.083566491362781 5.492680219296176
H -3.1405767646688516 7.048210829084068 5.67027875506391
O 4.669408524180904 -6.859788999287765 7.748481702813689
H 3.743879954604652 -6.722780958652544 8.000658269130698
H 4.624584623751181 -7.085446357615071 6.807189230261715
O -0.08343725811491343 10.230223117460973 8.044077473944812
H -0.1068842656207547 10.23923798539797 9.012755091573661
H -0.9352150617614585 10.613247883666933 7.785758783200345
O 6.692520919290702 -0.3619033094606898 -5.5959118366891065
H 7.0097646280382095 0.14721012711752524 -4.834907700789934
H 5.763475605532018 -0.10022531200457618 -5.6817102919804725
C 4.473289798319633 -0.4813028259802507 2.144248161159686
O 4.53259518045294 -0.8623474942529242 1.011064111796569
O 4.413984416186326 -0.1002581577075774 3.2774322105228024