146

C -5.3564454929577465 1.0091607042253532 -0.0734429577464788
C -4.079135492957747 0.16955070422535368 -0.19788295774647868
C -4.333545492957747 -1.2789292957746463 0.3017270422535212
C -3.1403854929577464 -2.1745492957746464 0.7330270422535212
C -2.905235492957746 0.902300704225353 0.41966704225352136
C -2.7423854929577463 1.056130704225354 1.8024770422535212
C -1.8861754929577463 1.3499307042253532 -0.4326129577464788
C -1.5304554929577463 1.5279207042253526 2.3254170422535214
H -3.5237954929577464 0.7301007042253529 2.484817042253521
C -0.6776454929577462 1.8010507042253527 0.08546704225352131
H -1.9759254929577463 1.2426607042253535 -1.5115229577464788
C -0.4680254929577463 1.8513207042253539 1.4698070422535212
H -1.3950654929577464 1.5446707042253527 3.404047042253521
H 0.1461845070422536 1.9972507042253538 -0.6030529577464789
C -1.8679654929577463 -2.0866092957746467 -0.08765295774647863
C -0.6628654929577462 -1.814079295774647 0.5787970422535212
C -1.8438954929577462 -2.213429295774647 -1.4808029577464787
C 0.5129345070422537 -1.5763292957746469 -0.13022295774647863
H -0.6401854929577462 -1.7032692957746463 1.6609470422535213
C -0.6547954929577462 -1.9962392957746466 -2.1933129577464787
H -2.7578654929577464 -2.4351492957746466 -2.026182957746479
C 0.5308845070422537 -1.645769295774647 -1.5261029577464789
H 1.4044045070422537 -1.2610992957746463 0.41551704225352126
H -0.6795654929577464 -2.0467992957746466 -3.2793129577464786
C 1.7843245070422535 -1.2521692957746469 -2.2771629577464787
H 1.4981245070422535 -0.9384492957746469 -3.290282957746479
H 2.241984507042254 -0.38631929577464685 -1.8135029577464787
C 0.9385645070422537 2.0647807042253534 1.9815670422535212
H 1.0508945070422537 1.5807407042253532 2.9609770422535213
H 1.6053245070422537 1.5496207042253536 1.3096170422535214
C 3.9676945070422533 -1.6881692957746468 -3.314052957746479
H 4.795084507042254 -2.398849295774647 -3.4044129577464783
H 3.548404507042253 -1.4816192957746468 -4.303802957746479
H 4.307714507042253 -0.7637192957746466 -2.851282957746479
C 2.344694507042253 -3.565079295774647 -3.101282957746479
H 1.6334345070422536 -4.047909295774646 -2.4251929577464786
H 1.8561845070422536 -3.293109295774647 -4.041792957746479
H 3.1808045070422537 -4.243519295774647 -3.298122957746479
C 3.5156645070422536 -2.648489295774647 -1.1110629577464786
H 3.9311845070422535 -1.748249295774647 -0.6771029577464787
H 2.767184507042254 -3.1044092957746465 -0.45972295774647876
H 4.319224507042254 -3.371819295774647 -1.2863129577464787
C 2.963994507042253 3.381090704225353 2.401027042253521
H 3.3337945070422537 4.369820704225353 2.6912870422535216
H 3.120994507042253 2.671350704225353 3.2183370422535216
H 3.4665445070422534 3.0664207042253535 1.4881370422535212
C 1.2973745070422538 4.282440704225354 0.8488370422535213
H 1.7592145070422538 3.7367207042253527 0.02653704225352116
H 0.23311450704225378 4.4484607042253534 0.6605570422535213
H 1.7921845070422535 5.251370704225354 0.9736770422535213
C 0.7724845070422537 4.194670704225353 3.2772470422535216
H -0.2956954929577462 4.278220704225354 3.057857042253521
H 0.9298945070422537 3.612620704225354 4.190337042253521
H 1.2046345070422537 5.193640704225353 3.3918370422535213
N 2.876084507042253 -2.324759295774647 -2.4576629577464786
N 1.4527845070422536 3.504690704225353 2.1388470422535213
C -3.593905492957746 -3.637819295774647 0.8297870422535213
H -2.8952554929577463 -1.8680692957746468 1.7595270422535212
H -5.022615492957747 -1.2402792957746467 1.1579970422535213
H -4.898275492957747 -1.7933092957746464 -0.48931295774647876
H -3.883675492957746 0.07871070422535364 -1.2758929577464788
H -3.8751654929577466 -4.038529295774646 -0.1505529577464788
H -4.4603554929577465 -3.7321892957746465 1.4932570422535212
H -2.7953554929577464 -4.271929295774647 1.2313670422535212
H -5.648775492957746 1.147700704225353 0.9733970422535213
H -6.189795492957747 0.5254307042253537 -0.5943629577464788
H -5.2178854929577465 2.002970704225354 -0.5139729577464787
C 3.6710445070422537 1.0263707042253536 -0.27764295774647874
O 2.7356545070422538 1.6631507042253526 -0.7327029577464788
O 3.650814507042253 0.3883007042253537 0.7790570422535212
O 4.756604507042254 0.8696707042253538 -0.8334829577464786
O 2.5919448936944094 1.8218323563994012 9.3088193606909
H 3.402694311766644 1.323499684061701 9.126289128465386
H 2.2203521207226133 1.9940674675147794 8.430630416400321
O 0.26833461766927547 10.319210269028511 2.001109834941303
H 0.7993336215808895 11.088059261057694 1.7444414843396228
H -0.16512580768662677 10.048722075766102 1.1777568479084515
O -6.369528571947038 -1.2915963174536453 7.702817815358156
H -6.80363237192562 -1.5174470151634418 6.8664490509437055
H -5.424007762829582 -1.350372458329358 7.4991079503794875
O 12.498736608627876 -4.568401466422008 -2.4122068334083497
H 12.234140607276798 -4.785417550037989 -1.5056417047932007
H 11.89118590418222 -3.8588511679916246 -2.669854771154689
O 15.699926305560853 2.341390625745084 6.669131364243202
H 16.50321731409899 2.749004727029262 6.312001616201861
H 15.878269336197846 2.265329849113387 7.618536686527312
O 5.228823447493527 -4.130589764836638 0.3797504681390988
H 5.2195083806336475 -3.966930150339592 1.3347877014510128
H 4.365629679749943 -3.809225191445429 0.07877991376920701
O 11.903182466998231 2.166572186676098 1.6514556304562409
H 11.911804188554372 2.254319122537804 0.6864719528407636
H 11.306044812726949 2.8709177350650004 1.9452002723071629
O -6.875405921524036 -6.578018301810708 0.35630084553808583
H -7.295073129135526 -6.7329761679115805 1.2158558766379222
H -7.313653822101449 -7.208182175735697 -0.23513318623497614
O -7.501098290098035 -0.11113435153480777 1.177540763930483
H -7.6878825196339 -0.3104182516437657 2.1072530504224156
H -6.538631497586029 -0.002145734369769503 1.1503176314857577
O 13.31729332443292 -1.0912314959502467 -1.5036123013986868
H 13.837220156164195 -1.1265146914302049 -2.3205569400753863
H 12.40198054831545 -1.1957719949602232 -1.804004961500214
O 10.025416752899533 -2.1116448606673135 -1.4939811160148846
H 10.56797121336232 -2.2720526933244294 -0.7072973539133751
H 9.38862607348739 -2.8420254347978493 -1.4920338495796972
O 0.22812514355084268 -9.023310323257816 4.70616555702561
H 0.4810629821586776 -9.022510651835692 3.770757000711303
H -0.22074901011904036 -8.17323069134177 4.827979176414509
O -6.97127505357882 -6.294644811837162 5.26799502963948
H -6.273832199747382 -6.126565552327089 5.91937063945459
H -6.7114439201775635 -5.759068708172476 4.5033984277644965
O 8.590043911901542 -12.244674434631435 -2.020217142890802
H 8.859085783093859 -12.598058348408994 -2.8814393197584147
H 8.954122839399894 -11.346713388864114 -2.011589331110776
O 7.37246255986368 0.12531495869357534 -6.947779261994054
H 8.28361605213376 0.42916422615230854 -7.07600676719021
H 6.838484420580247 0.9221618380859766 -7.085126784250532
O -4.879495622597865 -5.538052079729202 -6.155384241979146
H -4.913036594246877 -5.501464791033452 -7.123115470382329
H -5.792924519650839 -5.363994610754437 -5.882779047929789
O 2.9223667482996065 -7.0235932392217135 7.522567278050124
H 2.856143368525343 -7.743425463752583 8.167876033141992
H 3.147119872829997 -6.248440930851297 8.058838549089176
O 4.17109848803349 -6.922476022955878 -7.178842213276104
H 3.274833056233298 -7.276637484945951 -7.280061240642849
H 4.09736821796188 -6.308773562341971 -6.432588180515408
O -9.738150726023973 -8.79769219415077 -4.809805923805282
H -9.590134488520683 -8.9226831350569 -5.75924566124351
H -9.336399899207464 -7.936195402846798 -4.6217062267688105
O 10.45544521120625 -2.75971654044484 1.6679605550792753
H 10.231346336724332 -1.9352896420599421 2.125199377332369
H 10.92003828830353 -2.465947063379762 0.8699538437301855
O -1.316785385122297 -8.665003558811712 -8.109650725801703
H -0.8088167033112459 -8.793226223098264 -8.924815815561072
H -2.2321831905470475 -8.841244083829533 -8.374127718118602
O -10.650303142999633 -8.080651111548537 -8.926235963550848
H -11.54624171164966 -7.944409824565906 -9.269309934913665
H -10.79123114468808 -8.372893588349656 -8.013166646689722
O -0.5808649846037701 5.2861658143169095 9.729852966266542
H -1.0464458431105192 4.438673575321879 9.6669345592992
H 0.2345025255163793 5.070431611419336 10.206923738207788
O -3.6481244701103837 4.312407658474112 -5.99587413895892
H -3.811849913587092 4.36462311894857 -6.949517091927062
H -3.591012556024627 3.361227054320798 -5.819932012530948
C 3.5132313909136155 9.942237575283933 11.73188956071446
O 3.0993711365914267 9.974943228930892 10.609183772267684
O 3.927091645235805 9.909531921636976 12.854595349161237