146

C -5.3564454929577465 1.0091607042253532 -0.0734429577464788
C -4.079135492957747 0.16955070422535368 -0.19788295774647868
C -4.333545492957747 -1.2789292957746463 0.3017270422535212
C -3.1403854929577464 -2.1745492957746464 0.7330270422535212
C -2.905235492957746 0.902300704225353 0.41966704225352136
C -2.7423854929577463 1.056130704225354 1.8024770422535212
C -1.8861754929577463 1.3499307042253532 -0.4326129577464788
C -1.5304554929577463 1.5279207042253526 2.3254170422535214
H -3.5237954929577464 0.7301007042253529 2.484817042253521
C -0.6776454929577462 1.8010507042253527 0.08546704225352131
H -1.9759254929577463 1.2426607042253535 -1.5115229577464788
C -0.4680254929577463 1.8513207042253539 1.4698070422535212
H -1.3950654929577464 1.5446707042253527 3.404047042253521
H 0.1461845070422536 1.9972507042253538 -0.6030529577464789
C -1.8679654929577463 -2.0866092957746467 -0.08765295774647863
C -0.6628654929577462 -1.814079295774647 0.5787970422535212
C -1.8438954929577462 -2.213429295774647 -1.4808029577464787
C 0.5129345070422537 -1.5763292957746469 -0.13022295774647863
H -0.6401854929577462 -1.7032692957746463 1.6609470422535213
C -0.6547954929577462 -1.9962392957746466 -2.1933129577464787
H -2.7578654929577464 -2.4351492957746466 -2.026182957746479
C 0.5308845070422537 -1.645769295774647 -1.5261029577464789
H 1.4044045070422537 -1.2610992957746463 0.41551704225352126
H -0.6795654929577464 -2.0467992957746466 -3.2793129577464786
C 1.7843245070422535 -1.2521692957746469 -2.2771629577464787
H 1.4981245070422535 -0.9384492957746469 -3.290282957746479
H 2.241984507042254 -0.38631929577464685 -1.8135029577464787
C 0.9385645070422537 2.0647807042253534 1.9815670422535212
H 1.0508945070422537 1.5807407042253532 2.9609770422535213
H 1.6053245070422537 1.5496207042253536 1.3096170422535214
C 3.9676945070422533 -1.6881692957746468 -3.314052957746479
H 4.795084507042254 -2.398849295774647 -3.4044129577464783
H 3.548404507042253 -1.4816192957746468 -4.303802957746479
H 4.307714507042253 -0.7637192957746466 -2.851282957746479
C 2.344694507042253 -3.565079295774647 -3.101282957746479
H 1.6334345070422536 -4.047909295774646 -2.4251929577464786
H 1.8561845070422536 -3.293109295774647 -4.041792957746479
H 3.1808045070422537 -4.243519295774647 -3.298122957746479
C 3.5156645070422536 -2.648489295774647 -1.1110629577464786
H 3.9311845070422535 -1.748249295774647 -0.6771029577464787
H 2.767184507042254 -3.1044092957746465 -0.45972295774647876
H 4.319224507042254 -3.371819295774647 -1.2863129577464787
C 2.963994507042253 3.381090704225353 2.401027042253521
H 3.3337945070422537 4.369820704225353 2.6912870422535216
H 3.120994507042253 2.671350704225353 3.2183370422535216
H 3.4665445070422534 3.0664207042253535 1.4881370422535212
C 1.2973745070422538 4.282440704225354 0.8488370422535213
H 1.7592145070422538 3.7367207042253527 0.02653704225352116
H 0.23311450704225378 4.4484607042253534 0.6605570422535213
H 1.7921845070422535 5.251370704225354 0.9736770422535213
C 0.7724845070422537 4.194670704225353 3.2772470422535216
H -0.2956954929577462 4.278220704225354 3.057857042253521
H 0.9298945070422537 3.612620704225354 4.190337042253521
H 1.2046345070422537 5.193640704225353 3.3918370422535213
N 2.876084507042253 -2.324759295774647 -2.4576629577464786
N 1.4527845070422536 3.504690704225353 2.1388470422535213
C -3.593905492957746 -3.637819295774647 0.8297870422535213
H -2.8952554929577463 -1.8680692957746468 1.7595270422535212
H -5.022615492957747 -1.2402792957746467 1.1579970422535213
H -4.898275492957747 -1.7933092957746464 -0.48931295774647876
H -3.883675492957746 0.07871070422535364 -1.2758929577464788
H -3.8751654929577466 -4.038529295774646 -0.1505529577464788
H -4.4603554929577465 -3.7321892957746465 1.4932570422535212
H -2.7953554929577464 -4.271929295774647 1.2313670422535212
H -5.648775492957746 1.147700704225353 0.9733970422535213
H -6.189795492957747 0.5254307042253537 -0.5943629577464788
H -5.2178854929577465 2.002970704225354 -0.5139729577464787
C 3.6710445070422537 1.0263707042253536 -0.27764295774647874
O 2.7356545070422538 1.6631507042253526 -0.7327029577464788
O 3.650814507042253 0.3883007042253537 0.7790570422535212
O 4.756604507042254 0.8696707042253538 -0.8334829577464786
O 4.3201174023602595 -7.779596392960089 -4.4849878568367405
H 5.247773513307873 -7.661464996596258 -4.73889033794845
H 4.0636533917251585 -8.609334820661996 -4.914781175937591
O -2.248312048907595 9.364437166392033 0.04129839940677116
H -2.5867697040162114 8.460544016750745 0.12726901432798
H -2.462244787274667 9.776362348274386 0.8918937040528503
O 1.2250173213887856 -12.343244211482961 -9.239159638598405
H 1.6185700608202218 -12.38965396999522 -10.123427546249049
H 1.082802527224001 -13.270733008255158 -8.99728895314287
O -9.64973017657957 6.553236733744373 4.716423400682052
H -10.345647560832628 6.927449940799148 4.155503774656928
H -9.756345580935417 5.595566330389591 4.614137045813337
O 5.99455732396526 -6.141856240064681 -4.35736933581348
H 6.218430432904839 -6.069483473314849 -5.297374852088094
H 6.852722830148828 -6.104964162340873 -3.9088686302422166
O -7.8009761415854255 9.522208513319462 1.0852657404128367
H -8.0791762387681 9.881697810292408 0.2294973674348183
H -6.902647822634924 9.865987353598369 1.2026722336236337
O -4.132451169818601 12.19285124175673 3.6250063915171733
H -3.2005554777982543 12.048035545978774 3.4023717348478497
H -4.544596556113648 11.327719300789553 3.481323234626492
O -3.8102179119193216 -3.682557800373557 -2.009864397294533
H -4.416371407405256 -2.9616956215507564 -1.7820420631105705
H -4.355097811313271 -4.480036046983875 -1.9317856823987798
O 7.2819595588511365 4.920710500126132 0.6385723346866052
H 6.5402038703779635 4.494995465829866 0.1830149122996796
H 7.010199736065617 5.8478810975879565 0.7124859749830192
O 2.3669448648122233 -5.310900391349728 -6.112662002242062
H 2.447412174536054 -4.440224743676636 -5.695030243973068
H 2.456451814731906 -5.933304205976321 -5.37539411215438
O -8.370000335118954 3.3092982130940607 -5.397904220684717
H -8.28428437167403 3.2653231076026183 -4.433701793490238
H -7.680853057110429 3.935600975138456 -5.665827388344777
O -2.2206967210723905 -4.4675242879118775 -6.346325176548558
H -2.696848245581899 -4.367832577109736 -7.184363746904729
H -1.4358468975203447 -4.9841672579780125 -6.583079775768011
O -1.0236009690944443 0.0029747473203396435 4.083619834578718
H -0.22474588342133983 0.49981711532492046 4.315881691864453
H -1.4838815315942098 -0.10863460610449538 4.928987861128688
O 8.139311813576139 -12.715208056532257 -1.5816161042025563
H 8.682018072072715 -11.969579914581761 -1.2841670365958482
H 7.346272500728635 -12.29597852453358 -1.9480819171763288
O -1.2207699314732228 17.448722007675563 -1.6073521830463724
H -1.3295818195336873 17.97866640815516 -2.4112714963589976
H -0.26474608187557624 17.456515367346995 -1.4494927302235339
O -4.032185043648933 5.089248688817348 6.96599288517668
H -3.6675274462451704 4.775730267564958 7.8072410014248685
H -3.367967050125806 5.716019436601439 6.642056423656396
O 4.952460442435945 -10.051915550342269 -0.6714052298874933
H 4.581914268436099 -10.316805061120895 -1.526680879554627
H 5.70120048139465 -10.653725895677862 -0.5442258030639304
O 2.515812536212512 -7.442874403476035 5.533466332040837
H 3.29730865502119 -7.723676840820804 5.0340855511048765
H 2.1884591390071453 -8.261447890859413 5.935634385708852
O -7.394763859849543 0.32538226569080386 8.24662642662654
H -7.731041184202157 0.8381378476670212 7.4963154036644095
H -8.192614856393138 -0.04374174146664478 8.654233098498358
O 13.38781071087716 -5.355896444369272 -3.0591289163201614
H 14.336280078234353 -5.323015110317526 -2.86344541176235
H 13.346925887883756 -5.708634521837981 -3.9607198569647957
O 8.652860433877816 -3.3909022845621917 -2.4235759855257397
H 8.684117715489133 -2.423934133270864 -2.3691431495303235
H 8.496711051230042 -3.6718640122441597 -1.5094426133219443
O 6.923266259649621 6.240217441829154 4.996863502539558
H 7.619721633034837 5.697057479632942 5.395479263956327
H 6.136042303731034 5.676505207475345 5.035189790746558
O -0.19527112160702442 -9.691698886539172 -2.6688958468409147
H -0.15293705934367585 -10.43369206206508 -2.0471070470501322
H -0.919762933798244 -9.144128527979582 -2.330901378254805
O 0.2478023779179379 -4.314196869394563 4.437616406093188
H 0.7246055741156892 -3.917161020810171 5.181920513252674
H -0.4505232932223515 -3.6727272945914167 4.238066948744055
C -3.1931394354477103 -2.2545834058461183 -10.342425273176106
O -4.020744741936179 -2.4016150210056035 -9.490210852906348
O -2.3655341289592413 -2.107551790686632 -11.194639693445865