146

C -5.3564454929577465 1.0091607042253532 -0.0734429577464788
C -4.079135492957747 0.16955070422535368 -0.19788295774647868
C -4.333545492957747 -1.2789292957746463 0.3017270422535212
C -3.1403854929577464 -2.1745492957746464 0.7330270422535212
C -2.905235492957746 0.902300704225353 0.41966704225352136
C -2.7423854929577463 1.056130704225354 1.8024770422535212
C -1.8861754929577463 1.3499307042253532 -0.4326129577464788
C -1.5304554929577463 1.5279207042253526 2.3254170422535214
H -3.5237954929577464 0.7301007042253529 2.484817042253521
C -0.6776454929577462 1.8010507042253527 0.08546704225352131
H -1.9759254929577463 1.2426607042253535 -1.5115229577464788
C -0.4680254929577463 1.8513207042253539 1.4698070422535212
H -1.3950654929577464 1.5446707042253527 3.404047042253521
H 0.1461845070422536 1.9972507042253538 -0.6030529577464789
C -1.8679654929577463 -2.0866092957746467 -0.08765295774647863
C -0.6628654929577462 -1.814079295774647 0.5787970422535212
C -1.8438954929577462 -2.213429295774647 -1.4808029577464787
C 0.5129345070422537 -1.5763292957746469 -0.13022295774647863
H -0.6401854929577462 -1.7032692957746463 1.6609470422535213
C -0.6547954929577462 -1.9962392957746466 -2.1933129577464787
H -2.7578654929577464 -2.4351492957746466 -2.026182957746479
C 0.5308845070422537 -1.645769295774647 -1.5261029577464789
H 1.4044045070422537 -1.2610992957746463 0.41551704225352126
H -0.6795654929577464 -2.0467992957746466 -3.2793129577464786
C 1.7843245070422535 -1.2521692957746469 -2.2771629577464787
H 1.4981245070422535 -0.9384492957746469 -3.290282957746479
H 2.241984507042254 -0.38631929577464685 -1.8135029577464787
C 0.9385645070422537 2.0647807042253534 1.9815670422535212
H 1.0508945070422537 1.5807407042253532 2.9609770422535213
H 1.6053245070422537 1.5496207042253536 1.3096170422535214
C 3.9676945070422533 -1.6881692957746468 -3.314052957746479
H 4.795084507042254 -2.398849295774647 -3.4044129577464783
H 3.548404507042253 -1.4816192957746468 -4.303802957746479
H 4.307714507042253 -0.7637192957746466 -2.851282957746479
C 2.344694507042253 -3.565079295774647 -3.101282957746479
H 1.6334345070422536 -4.047909295774646 -2.4251929577464786
H 1.8561845070422536 -3.293109295774647 -4.041792957746479
H 3.1808045070422537 -4.243519295774647 -3.298122957746479
C 3.5156645070422536 -2.648489295774647 -1.1110629577464786
H 3.9311845070422535 -1.748249295774647 -0.6771029577464787
H 2.767184507042254 -3.1044092957746465 -0.45972295774647876
H 4.319224507042254 -3.371819295774647 -1.2863129577464787
C 2.963994507042253 3.381090704225353 2.401027042253521
H 3.3337945070422537 4.369820704225353 2.6912870422535216
H 3.120994507042253 2.671350704225353 3.2183370422535216
H 3.4665445070422534 3.0664207042253535 1.4881370422535212
C 1.2973745070422538 4.282440704225354 0.8488370422535213
H 1.7592145070422538 3.7367207042253527 0.02653704225352116
H 0.23311450704225378 4.4484607042253534 0.6605570422535213
H 1.7921845070422535 5.251370704225354 0.9736770422535213
C 0.7724845070422537 4.194670704225353 3.2772470422535216
H -0.2956954929577462 4.278220704225354 3.057857042253521
H 0.9298945070422537 3.612620704225354 4.190337042253521
H 1.2046345070422537 5.193640704225353 3.3918370422535213
N 2.876084507042253 -2.324759295774647 -2.4576629577464786
N 1.4527845070422536 3.504690704225353 2.1388470422535213
C -3.593905492957746 -3.637819295774647 0.8297870422535213
H -2.8952554929577463 -1.8680692957746468 1.7595270422535212
H -5.022615492957747 -1.2402792957746467 1.1579970422535213
H -4.898275492957747 -1.7933092957746464 -0.48931295774647876
H -3.883675492957746 0.07871070422535364 -1.2758929577464788
H -3.8751654929577466 -4.038529295774646 -0.1505529577464788
H -4.4603554929577465 -3.7321892957746465 1.4932570422535212
H -2.7953554929577464 -4.271929295774647 1.2313670422535212
H -5.648775492957746 1.147700704225353 0.9733970422535213
H -6.189795492957747 0.5254307042253537 -0.5943629577464788
H -5.2178854929577465 2.002970704225354 -0.5139729577464787
C 3.6710445070422537 1.0263707042253536 -0.27764295774647874
O 2.7356545070422538 1.6631507042253526 -0.7327029577464788
O 3.650814507042253 0.3883007042253537 0.7790570422535212
O 4.756604507042254 0.8696707042253538 -0.8334829577464786
O 2.064428754817107 -11.384672369026184 6.2384339451676745
H 2.8367567883677953 -11.836749953111388 6.610055558451153
H 1.4386793544496514 -12.101759439974977 6.056264340354337
O 4.5624968422228624 -4.022852304480594 -11.697475528764766
H 3.763703399072232 -3.4745847357069337 -11.714769027849135
H 4.266832412692256 -4.878212096069366 -12.043747266484658
O -1.8194754795794248 -7.365962060725354 -6.2933793095477935
H -2.6547794625832886 -7.853483054576463 -6.233731229676701
H -1.257709532462227 -7.781087735306804 -5.621775528094165
O -4.932415854426955 -11.57584635553026 5.181647487713597
H -5.6205316830585215 -11.596495347823122 5.863584128761712
H -4.7835516733288905 -10.630774800614493 5.027890679815239
O -8.182752473719377 0.6242019676899262 0.0664002166064428
H -7.683931538671304 0.9567483887130628 -0.6948867920325261
H -8.416821035736454 -0.28191209859673405 -0.1848589154717989
O -3.5111904206996263 0.8776967589810891 -4.02163404398379
H -4.229565076001674 1.525342237204783 -3.962807637871677
H -3.9146441762592374 0.052061487885902924 -3.714203709520154
O 2.755636352680701 -6.450876916323878 7.675796593475912
H 2.9459355755256444 -5.615066622574611 8.12765355706879
H 3.065605162880195 -6.302956164869393 6.769705686175409
O -0.4972369459836159 -6.523140030869912 -9.468730055662641
H -0.5771036582685978 -6.096169180212176 -10.334919733422309
H -1.1917827356645103 -6.1059492394948585 -8.937204013094268
O 7.344217755301233 13.651573486600869 -5.374265834019154
H 7.728894832438563 13.100018146365914 -4.676571337922627
H 6.436339868159239 13.32343189247263 -5.458187109876751
O -8.113077278357176 3.73005101598861 -5.7714150900236545
H -7.209246052288375 4.078768892510207 -5.750147408503659
H -7.992642480703381 2.773355932084427 -5.867289592617708
O -3.5240290038350772 -7.7819310650461 -9.398464043680043
H -2.8285887050114233 -8.154459493255608 -9.961094222259028
H -3.7412152487328147 -6.938137552591872 -9.822497754211854
O -9.216293657266316 -10.19280221476767 4.991658358488769
H -9.36768917133461 -10.568235615753647 5.872054017635326
H -9.792253500183508 -9.413937082760691 4.967136739648329
O 8.801550791055377 7.497109864098015 0.6844992352995987
H 9.01525030121412 6.739203113573272 1.2491913937071142
H 7.834575173545353 7.5493848151100575 0.7189583260856249
O 5.165489084348636 -6.665159312992239 8.275096854444547
H 5.354492242878843 -6.565506545103213 7.3299436981689805
H 6.042071300897546 -6.703537163483334 8.686305685237224
O -5.072228691307079 -0.738757015817447 -7.091735920568997
H -5.947489677545433 -0.504124710701042 -6.748467447992755
H -4.977930085988918 -1.6774187049724083 -6.870412739117518
O 9.146950051233798 -12.257512401948013 1.3740754406650697
H 9.445987989939177 -12.752041722884773 0.5962679973677787
H 8.344435407064804 -12.723315322215516 1.6532883158420209
O 0.11672595517792783 -9.570687490820267 -0.1873270336292326
H -0.03224691038882499 -9.779212742050293 -1.1218277890191286
H 0.8964118971373982 -10.095635924793411 0.04821684313243446
O 4.631821312408335 3.8928038181112337 10.276384135696864
H 4.662494407705279 3.272923409455868 11.020544600307934
H 3.779448541661147 3.709074175386906 9.853695098255447
O -12.581030209629608 -1.8072924187886903 -9.41830631215195
H -12.636963248800718 -2.1653893427073188 -10.316975019245447
H -12.725740988641489 -0.8563936837155071 -9.535832183235698
O 12.063118459640506 -6.743246737783455 -0.6057718833585963
H 12.437277787412686 -7.557648281694572 -0.9741769316631235
H 11.293564322868175 -6.564504288398285 -1.166841853740527
O -8.907902290686863 -3.859450138624348 4.189862392380056
H -8.82019086582389 -3.7747853290956996 5.151166679729273
H -8.675848403998843 -4.783701718976001 4.014158225695099
O -3.9222768446325778 -4.162488616549099 -4.699691761215789
H -3.240153874405228 -4.8255707026383865 -4.884076569417811
H -3.855916197104332 -3.5452790171830344 -5.4437418396446615
O 6.93742069096845 -1.7834845990505377 6.853439114821538
H 7.246098808986035 -2.687351530619718 7.016870281900642
H 7.644859930494633 -1.3868390696242026 6.32319012551112
O 3.4274377046944444 -1.276369782779344 -8.765292401179384
H 3.8382715587432834 -2.1332548168687127 -8.575737819010975
H 4.068497088076832 -0.6306238957907346 -8.432100173306813
C 9.291677509621795 -0.37671059079482244 2.0225097712834468
O 9.260108819959289 -0.8110718329812006 0.9075425132801908
O 9.323246199284302 0.05765065139155551 3.1374770292867025