146

C -5.3564454929577465 1.0091607042253532 -0.0734429577464788
C -4.079135492957747 0.16955070422535368 -0.19788295774647868
C -4.333545492957747 -1.2789292957746463 0.3017270422535212
C -3.1403854929577464 -2.1745492957746464 0.7330270422535212
C -2.905235492957746 0.902300704225353 0.41966704225352136
C -2.7423854929577463 1.056130704225354 1.8024770422535212
C -1.8861754929577463 1.3499307042253532 -0.4326129577464788
C -1.5304554929577463 1.5279207042253526 2.3254170422535214
H -3.5237954929577464 0.7301007042253529 2.484817042253521
C -0.6776454929577462 1.8010507042253527 0.08546704225352131
H -1.9759254929577463 1.2426607042253535 -1.5115229577464788
C -0.4680254929577463 1.8513207042253539 1.4698070422535212
H -1.3950654929577464 1.5446707042253527 3.404047042253521
H 0.1461845070422536 1.9972507042253538 -0.6030529577464789
C -1.8679654929577463 -2.0866092957746467 -0.08765295774647863
C -0.6628654929577462 -1.814079295774647 0.5787970422535212
C -1.8438954929577462 -2.213429295774647 -1.4808029577464787
C 0.5129345070422537 -1.5763292957746469 -0.13022295774647863
H -0.6401854929577462 -1.7032692957746463 1.6609470422535213
C -0.6547954929577462 -1.9962392957746466 -2.1933129577464787
H -2.7578654929577464 -2.4351492957746466 -2.026182957746479
C 0.5308845070422537 -1.645769295774647 -1.5261029577464789
H 1.4044045070422537 -1.2610992957746463 0.41551704225352126
H -0.6795654929577464 -2.0467992957746466 -3.2793129577464786
C 1.7843245070422535 -1.2521692957746469 -2.2771629577464787
H 1.4981245070422535 -0.9384492957746469 -3.290282957746479
H 2.241984507042254 -0.38631929577464685 -1.8135029577464787
C 0.9385645070422537 2.0647807042253534 1.9815670422535212
H 1.0508945070422537 1.5807407042253532 2.9609770422535213
H 1.6053245070422537 1.5496207042253536 1.3096170422535214
C 3.9676945070422533 -1.6881692957746468 -3.314052957746479
H 4.795084507042254 -2.398849295774647 -3.4044129577464783
H 3.548404507042253 -1.4816192957746468 -4.303802957746479
H 4.307714507042253 -0.7637192957746466 -2.851282957746479
C 2.344694507042253 -3.565079295774647 -3.101282957746479
H 1.6334345070422536 -4.047909295774646 -2.4251929577464786
H 1.8561845070422536 -3.293109295774647 -4.041792957746479
H 3.1808045070422537 -4.243519295774647 -3.298122957746479
C 3.5156645070422536 -2.648489295774647 -1.1110629577464786
H 3.9311845070422535 -1.748249295774647 -0.6771029577464787
H 2.767184507042254 -3.1044092957746465 -0.45972295774647876
H 4.319224507042254 -3.371819295774647 -1.2863129577464787
C 2.963994507042253 3.381090704225353 2.401027042253521
H 3.3337945070422537 4.369820704225353 2.6912870422535216
H 3.120994507042253 2.671350704225353 3.2183370422535216
H 3.4665445070422534 3.0664207042253535 1.4881370422535212
C 1.2973745070422538 4.282440704225354 0.8488370422535213
H 1.7592145070422538 3.7367207042253527 0.02653704225352116
H 0.23311450704225378 4.4484607042253534 0.6605570422535213
H 1.7921845070422535 5.251370704225354 0.9736770422535213
C 0.7724845070422537 4.194670704225353 3.2772470422535216
H -0.2956954929577462 4.278220704225354 3.057857042253521
H 0.9298945070422537 3.612620704225354 4.190337042253521
H 1.2046345070422537 5.193640704225353 3.3918370422535213
N 2.876084507042253 -2.324759295774647 -2.4576629577464786
N 1.4527845070422536 3.504690704225353 2.1388470422535213
C -3.593905492957746 -3.637819295774647 0.8297870422535213
H -2.8952554929577463 -1.8680692957746468 1.7595270422535212
H -5.022615492957747 -1.2402792957746467 1.1579970422535213
H -4.898275492957747 -1.7933092957746464 -0.48931295774647876
H -3.883675492957746 0.07871070422535364 -1.2758929577464788
H -3.8751654929577466 -4.038529295774646 -0.1505529577464788
H -4.4603554929577465 -3.7321892957746465 1.4932570422535212
H -2.7953554929577464 -4.271929295774647 1.2313670422535212
H -5.648775492957746 1.147700704225353 0.9733970422535213
H -6.189795492957747 0.5254307042253537 -0.5943629577464788
H -5.2178854929577465 2.002970704225354 -0.5139729577464787
C 3.6710445070422537 1.0263707042253536 -0.27764295774647874
O 2.7356545070422538 1.6631507042253526 -0.7327029577464788
O 3.650814507042253 0.3883007042253537 0.7790570422535212
O 4.756604507042254 0.8696707042253538 -0.8334829577464786
O -1.6018833720038161 -4.583325638993712 12.93367617599248
H -1.5033728599975005 -4.160148696572609 13.799807985434542
H -2.1822233646315183 -5.339636810825078 13.107344965992137
O 11.516031725666407 -5.573825167236545 4.879235554770167
H 11.8570999455714 -5.499875518041732 5.783210817515119
H 12.191524855807582 -5.138414135187485 4.33785933752189
O -11.855716846184455 3.2807926456024443 2.465995726624236
H -12.551033648967424 3.1875077125927405 3.1344265921152332
H -11.302040264294297 4.001022639738774 2.803149908732085
O 5.637155026665022 5.106833494607556 3.921481927986603
H 4.96556908259103 4.914851496325386 4.593108750677471
H 6.104879147946623 4.265416162473958 3.8109696487750577
O 2.7571036459418456 -9.38562466960799 1.9607828990571723
H 3.0419988009084555 -10.051931702140628 1.317481223344989
H 3.5843823106676895 -8.976213778259483 2.2556636838408632
O -14.536018733532792 -3.852973325319937 -8.027515839144685
H -14.900211745677636 -3.4311524134845497 -8.820231377748055
H -13.958717382495022 -3.174782600325801 -7.64575356374035
O 4.15874068181436 -9.802694929797989 -4.9367347977306135
H 4.35052857797966 -9.534769311473434 -4.02547159599914
H 3.7562235719376225 -9.015084958533965 -5.3324777114030635
O 1.889351935509643 6.820289315896311 6.196643061024991
H 0.9620543582305912 7.089947891314962 6.116825689635149
H 2.137067125962404 6.564317551655616 5.295489586509991
O 7.125326579953765 -4.885254755313968 -6.551175834782657
H 7.438084627208469 -4.957389899411719 -7.465476814637443
H 7.41914345840685 -4.005071407462407 -6.272050665009483
O -1.7048110345115042 -11.46932926672092 9.986249794531957
H -1.5284102447943608 -11.659277674850184 9.052563701384841
H -1.9778662922141512 -10.53959918767865 9.988429396558587
O -3.1317981050065815 3.3191885166435986 -10.120346983684023
H -3.5408334611331376 2.492135542538996 -10.416388893492673
H -3.4995962828908462 3.458313175468895 -9.234722472984505
O -7.569965745173187 -1.5156867760890649 1.9321543165165975
H -8.485033003090265 -1.7284227544645177 2.169562559618557
H -7.631229561715413 -0.6371680308836578 1.5279099555102915
O 1.2563026320052653 9.426953113014063 -4.897992242914315
H 1.3173604460085966 9.441168579697697 -3.931019016420374
H 1.8329627421566137 10.152974393830702 -5.179627044495374
O 4.9161135642387315 6.2757937787544265 9.30248122418593
H 4.315941628174286 6.5372675925111 10.016898783306784
H 4.366826834843518 6.324616828784832 8.50569873002831
O -0.43119918867450213 2.1567773948080182 -4.8477086255819355
H -0.2735085779701424 2.7363926601943724 -5.608068522161702
H -1.0261185500707308 1.4743020587233187 -5.193049491064112
O 5.217642857495959 7.815634678141947 -1.844833427012459
H 5.211637626721151 6.981863125175705 -2.338550240142824
H 5.173782095580233 8.495818541690987 -2.533591795115288
O -2.732040918426987 -0.9355007508447211 5.25406400538287
H -2.6560059424128735 -0.190800548523419 4.638752988103684
H -2.1068776184105173 -1.5899326016369049 4.907867897257383
O -1.051835930429161 -7.8721617487683595 9.201885802801442
H -0.694484949080115 -8.07448917537371 10.079570965870827
H -0.6438986972069296 -7.0235359366285595 8.973011625531367
O -8.690049032297981 -3.9962464063119776 -4.377204791427202
H -8.658793732304021 -3.6785047195776954 -3.4623109813959267
H -9.302824485902358 -4.746144931595712 -4.343732571046239
O 12.8623751834762 -4.412056210062493 2.438431527588878
H 13.435139456089825 -4.374457467144012 3.219132993866696
H 13.228173937359163 -5.140611749031904 1.914637634349693
O -2.6554515562367618 -3.9968846400689144 4.207160711613932
H -2.8937234088739716 -3.062331210518951 4.300989110605041
H -3.2040552105128426 -4.445772972926999 4.867838575204668
O -6.23184969948484 7.634928877689624 -3.589362706940505
H -6.5335013716270955 7.6078697768886006 -4.509819892613811
H -7.048150601644723 7.556635544144685 -3.0731409180208766
O -0.09944390189325691 2.318993082182611 -9.450083669042911
H 0.41543111525652776 2.0661528757294136 -8.669095254522109
H -0.9295017217174424 1.8287469125094247 -9.35197835231904
O -7.329399043322589 -11.790165458609504 6.515119548965728
H -7.484344447589971 -11.985956460509914 7.451402178395139
H -6.418915091439558 -12.084354318321656 6.362038418565129
C 1.7585712214813745 11.097979195221013 6.865513815609738
O 1.1917665627572473 10.087727781436131 6.563946547667286
O 2.3253758802055025 12.108230609005895 7.16708108355219