146

C -5.3564454929577465 1.0091607042253532 -0.0734429577464788
C -4.079135492957747 0.16955070422535368 -0.19788295774647868
C -4.333545492957747 -1.2789292957746463 0.3017270422535212
C -3.1403854929577464 -2.1745492957746464 0.7330270422535212
C -2.905235492957746 0.902300704225353 0.41966704225352136
C -2.7423854929577463 1.056130704225354 1.8024770422535212
C -1.8861754929577463 1.3499307042253532 -0.4326129577464788
C -1.5304554929577463 1.5279207042253526 2.3254170422535214
H -3.5237954929577464 0.7301007042253529 2.484817042253521
C -0.6776454929577462 1.8010507042253527 0.08546704225352131
H -1.9759254929577463 1.2426607042253535 -1.5115229577464788
C -0.4680254929577463 1.8513207042253539 1.4698070422535212
H -1.3950654929577464 1.5446707042253527 3.404047042253521
H 0.1461845070422536 1.9972507042253538 -0.6030529577464789
C -1.8679654929577463 -2.0866092957746467 -0.08765295774647863
C -0.6628654929577462 -1.814079295774647 0.5787970422535212
C -1.8438954929577462 -2.213429295774647 -1.4808029577464787
C 0.5129345070422537 -1.5763292957746469 -0.13022295774647863
H -0.6401854929577462 -1.7032692957746463 1.6609470422535213
C -0.6547954929577462 -1.9962392957746466 -2.1933129577464787
H -2.7578654929577464 -2.4351492957746466 -2.026182957746479
C 0.5308845070422537 -1.645769295774647 -1.5261029577464789
H 1.4044045070422537 -1.2610992957746463 0.41551704225352126
H -0.6795654929577464 -2.0467992957746466 -3.2793129577464786
C 1.7843245070422535 -1.2521692957746469 -2.2771629577464787
H 1.4981245070422535 -0.9384492957746469 -3.290282957746479
H 2.241984507042254 -0.38631929577464685 -1.8135029577464787
C 0.9385645070422537 2.0647807042253534 1.9815670422535212
H 1.0508945070422537 1.5807407042253532 2.9609770422535213
H 1.6053245070422537 1.5496207042253536 1.3096170422535214
C 3.9676945070422533 -1.6881692957746468 -3.314052957746479
H 4.795084507042254 -2.398849295774647 -3.4044129577464783
H 3.548404507042253 -1.4816192957746468 -4.303802957746479
H 4.307714507042253 -0.7637192957746466 -2.851282957746479
C 2.344694507042253 -3.565079295774647 -3.101282957746479
H 1.6334345070422536 -4.047909295774646 -2.4251929577464786
H 1.8561845070422536 -3.293109295774647 -4.041792957746479
H 3.1808045070422537 -4.243519295774647 -3.298122957746479
C 3.5156645070422536 -2.648489295774647 -1.1110629577464786
H 3.9311845070422535 -1.748249295774647 -0.6771029577464787
H 2.767184507042254 -3.1044092957746465 -0.45972295774647876
H 4.319224507042254 -3.371819295774647 -1.2863129577464787
C 2.963994507042253 3.381090704225353 2.401027042253521
H 3.3337945070422537 4.369820704225353 2.6912870422535216
H 3.120994507042253 2.671350704225353 3.2183370422535216
H 3.4665445070422534 3.0664207042253535 1.4881370422535212
C 1.2973745070422538 4.282440704225354 0.8488370422535213
H 1.7592145070422538 3.7367207042253527 0.02653704225352116
H 0.23311450704225378 4.4484607042253534 0.6605570422535213
H 1.7921845070422535 5.251370704225354 0.9736770422535213
C 0.7724845070422537 4.194670704225353 3.2772470422535216
H -0.2956954929577462 4.278220704225354 3.057857042253521
H 0.9298945070422537 3.612620704225354 4.190337042253521
H 1.2046345070422537 5.193640704225353 3.3918370422535213
N 2.876084507042253 -2.324759295774647 -2.4576629577464786
N 1.4527845070422536 3.504690704225353 2.1388470422535213
C -3.593905492957746 -3.637819295774647 0.8297870422535213
H -2.8952554929577463 -1.8680692957746468 1.7595270422535212
H -5.022615492957747 -1.2402792957746467 1.1579970422535213
H -4.898275492957747 -1.7933092957746464 -0.48931295774647876
H -3.883675492957746 0.07871070422535364 -1.2758929577464788
H -3.8751654929577466 -4.038529295774646 -0.1505529577464788
H -4.4603554929577465 -3.7321892957746465 1.4932570422535212
H -2.7953554929577464 -4.271929295774647 1.2313670422535212
H -5.648775492957746 1.147700704225353 0.9733970422535213
H -6.189795492957747 0.5254307042253537 -0.5943629577464788
H -5.2178854929577465 2.002970704225354 -0.5139729577464787
C 3.6710445070422537 1.0263707042253536 -0.27764295774647874
O 2.7356545070422538 1.6631507042253526 -0.7327029577464788
O 3.650814507042253 0.3883007042253537 0.7790570422535212
O 4.756604507042254 0.8696707042253538 -0.8334829577464786
O 10.988861331515766 -2.3711814966512232 -2.7865600283621
H 10.417716382001325 -2.85263692365646 -3.403780795471693
H 10.46826925287389 -2.3288700389564023 -1.9703764874210514
O 1.6910691615414044 -0.09678610359769182 11.846195268683928
H 1.8777190735314975 -0.0033658416403556796 12.792452010752335
H 2.2819512697065893 0.5463663336134348 11.426462947960763
O -3.0173342767235676 -9.233645163673293 6.02416659533702
H -2.8175018199692583 -10.177481033470997 6.1147656958333645
H -2.3866399638930758 -8.802589776654568 6.620302386399269
O 6.717227463409145 -6.670068421398141 8.152487502150024
H 7.606699386305254 -6.398724154476077 7.8801286504707955
H 6.577130866727263 -7.510299739334798 7.690593336505358
O -7.088260067537837 -3.3158857753286846 -4.967052540666134
H -6.777432733836822 -2.694081464213969 -4.2919872666344485
H -8.025342387987427 -3.442206586311726 -4.755199474336201
O -11.741582575020562 1.889172264681157 7.0758621827058725
H -10.95594258501627 2.432452983479586 7.238905807505873
H -12.041998022934964 2.1695015648756986 6.198292819973315
O -1.1509441956568098 8.222660290811508 -7.566017480787557
H -1.908884960072002 7.623970651579532 -7.643888338070629
H -1.4130976690958308 9.000384157755134 -8.081170940884748
O -2.1643236377159116 -3.172792878095064 -9.648663337051373
H -1.234585405014041 -3.4223370163979725 -9.759487064614838
H -2.1667504822952415 -2.2131892838994545 -9.783262730557645
O 13.850360887281335 -0.1620923369056939 4.641087312918664
H 14.720608995925438 -0.04370936962149674 4.231671803492912
H 13.228338414195784 -0.04007300805052871 3.9081744458858436
O 2.933329176293414 0.2092707238959608 -8.848269048704873
H 2.95789487614202 0.2548603161148706 -9.815887502627834
H 2.816495259567888 1.1310973620677758 -8.573410122418274
O 2.2603336085099555 -5.60607911784337 2.163590563857109
H 1.9225370650362619 -6.4623511529148345 2.466343027219173
H 1.9441759866028032 -5.539487304046277 1.2500415324716958
O 10.566104405455047 0.8182635960567073 2.544959992131706
H 11.33365240683214 1.1094468196003895 3.0597898211128336
H 10.367868351915885 -0.062129394110909175 2.8979084221337965
O -10.233592811325146 -2.2061311540917767 1.033572974892353
H -9.952488700339071 -1.3811357087917644 1.4570471192281826
H -9.803811610978052 -2.1818677313240884 0.16543626305267534
O 4.982970477642935 -5.119966351574767 8.405629458833875
H 5.1469511373466235 -5.576770173005949 7.566935254210395
H 5.761569765943925 -4.554654847884323 8.520381349242875
O 0.6708784257593399 -3.6242692985739913 -13.901864021213866
H 1.4795377500416578 -3.990251277249555 -14.290572968160017
H -0.019679585568320945 -3.8489965088091522 -14.543416246890864
O -12.169957954388138 -6.558582887093035 -6.217877758663445
H -12.46826289985518 -6.73121928037267 -7.123514657274198
H -11.364950987364896 -7.090935437253933 -6.131122414844017
O 2.1072374007789465 -8.167692951426648 9.56675713219532
H 2.2610974353741775 -8.358551134863392 10.504236518885815
H 2.5883408232101477 -8.869430473785165 9.103005160836585
O 9.600055713949947 -4.064020527551501 3.4204902099430567
H 9.401223735771596 -3.88812736160464 4.352420891660788
H 8.799129664865896 -4.49623237810599 3.0878157077056967
O 2.781051516624677 -3.402299913429366 6.129184490351486
H 2.9895821965191485 -2.744539181071948 5.448866085917663
H 2.601536168598655 -2.872105166842021 6.920152071744224
O 5.893374733525707 2.3073765716758556 11.397099193001326
H 5.731995560904682 1.633008693530205 12.073968518993786
H 5.332290881601812 2.0339948372032897 10.65587771283024
O 8.987629414624402 -8.316143528621696 4.7149133550669085
H 9.044260155172926 -8.019082639471117 3.794307497893495
H 8.036847565433222 -8.423238250046701 4.868231782503084
O 6.0420127693515076 9.878993933972868 -1.297150270575636
H 6.084873622611973 10.694535563327367 -0.7755928385054998
H 5.245521466340499 9.988650428327034 -1.8380190178459692
O -7.335294419747472 -10.131478758777735 -1.2897487679205435
H -7.004598868603505 -10.708477446976016 -1.994504273873532
H -7.894267997738644 -10.713706144452722 -0.7535382171311973
O 0.4365724283052348 7.218619450816359 7.070844771406842
H 0.32312872113065216 7.354279704263659 8.023574627051717
H 1.3484389291619225 6.901850355288518 6.986471973457193
C -7.567234686998301 12.346789071509958 -1.115704757865109
O -6.662962080609899 11.865880454702731 -0.49615959170199053
O -8.471507293386704 12.827697688317183 -1.7352499240282269