146

C -5.3564454929577465 1.0091607042253532 -0.0734429577464788
C -4.079135492957747 0.16955070422535368 -0.19788295774647868
C -4.333545492957747 -1.2789292957746463 0.3017270422535212
C -3.1403854929577464 -2.1745492957746464 0.7330270422535212
C -2.905235492957746 0.902300704225353 0.41966704225352136
C -2.7423854929577463 1.056130704225354 1.8024770422535212
C -1.8861754929577463 1.3499307042253532 -0.4326129577464788
C -1.5304554929577463 1.5279207042253526 2.3254170422535214
H -3.5237954929577464 0.7301007042253529 2.484817042253521
C -0.6776454929577462 1.8010507042253527 0.08546704225352131
H -1.9759254929577463 1.2426607042253535 -1.5115229577464788
C -0.4680254929577463 1.8513207042253539 1.4698070422535212
H -1.3950654929577464 1.5446707042253527 3.404047042253521
H 0.1461845070422536 1.9972507042253538 -0.6030529577464789
C -1.8679654929577463 -2.0866092957746467 -0.08765295774647863
C -0.6628654929577462 -1.814079295774647 0.5787970422535212
C -1.8438954929577462 -2.213429295774647 -1.4808029577464787
C 0.5129345070422537 -1.5763292957746469 -0.13022295774647863
H -0.6401854929577462 -1.7032692957746463 1.6609470422535213
C -0.6547954929577462 -1.9962392957746466 -2.1933129577464787
H -2.7578654929577464 -2.4351492957746466 -2.026182957746479
C 0.5308845070422537 -1.645769295774647 -1.5261029577464789
H 1.4044045070422537 -1.2610992957746463 0.41551704225352126
H -0.6795654929577464 -2.0467992957746466 -3.2793129577464786
C 1.7843245070422535 -1.2521692957746469 -2.2771629577464787
H 1.4981245070422535 -0.9384492957746469 -3.290282957746479
H 2.241984507042254 -0.38631929577464685 -1.8135029577464787
C 0.9385645070422537 2.0647807042253534 1.9815670422535212
H 1.0508945070422537 1.5807407042253532 2.9609770422535213
H 1.6053245070422537 1.5496207042253536 1.3096170422535214
C 3.9676945070422533 -1.6881692957746468 -3.314052957746479
H 4.795084507042254 -2.398849295774647 -3.4044129577464783
H 3.548404507042253 -1.4816192957746468 -4.303802957746479
H 4.307714507042253 -0.7637192957746466 -2.851282957746479
C 2.344694507042253 -3.565079295774647 -3.101282957746479
H 1.6334345070422536 -4.047909295774646 -2.4251929577464786
H 1.8561845070422536 -3.293109295774647 -4.041792957746479
H 3.1808045070422537 -4.243519295774647 -3.298122957746479
C 3.5156645070422536 -2.648489295774647 -1.1110629577464786
H 3.9311845070422535 -1.748249295774647 -0.6771029577464787
H 2.767184507042254 -3.1044092957746465 -0.45972295774647876
H 4.319224507042254 -3.371819295774647 -1.2863129577464787
C 2.963994507042253 3.381090704225353 2.401027042253521
H 3.3337945070422537 4.369820704225353 2.6912870422535216
H 3.120994507042253 2.671350704225353 3.2183370422535216
H 3.4665445070422534 3.0664207042253535 1.4881370422535212
C 1.2973745070422538 4.282440704225354 0.8488370422535213
H 1.7592145070422538 3.7367207042253527 0.02653704225352116
H 0.23311450704225378 4.4484607042253534 0.6605570422535213
H 1.7921845070422535 5.251370704225354 0.9736770422535213
C 0.7724845070422537 4.194670704225353 3.2772470422535216
H -0.2956954929577462 4.278220704225354 3.057857042253521
H 0.9298945070422537 3.612620704225354 4.190337042253521
H 1.2046345070422537 5.193640704225353 3.3918370422535213
N 2.876084507042253 -2.324759295774647 -2.4576629577464786
N 1.4527845070422536 3.504690704225353 2.1388470422535213
C -3.593905492957746 -3.637819295774647 0.8297870422535213
H -2.8952554929577463 -1.8680692957746468 1.7595270422535212
H -5.022615492957747 -1.2402792957746467 1.1579970422535213
H -4.898275492957747 -1.7933092957746464 -0.48931295774647876
H -3.883675492957746 0.07871070422535364 -1.2758929577464788
H -3.8751654929577466 -4.038529295774646 -0.1505529577464788
H -4.4603554929577465 -3.7321892957746465 1.4932570422535212
H -2.7953554929577464 -4.271929295774647 1.2313670422535212
H -5.648775492957746 1.147700704225353 0.9733970422535213
H -6.189795492957747 0.5254307042253537 -0.5943629577464788
H -5.2178854929577465 2.002970704225354 -0.5139729577464787
C 3.6710445070422537 1.0263707042253536 -0.27764295774647874
O 2.7356545070422538 1.6631507042253526 -0.7327029577464788
O 3.650814507042253 0.3883007042253537 0.7790570422535212
O 4.756604507042254 0.8696707042253538 -0.8334829577464786
O 8.236842161466011 -6.806062741654892 2.73782402276954
H 8.331594024388268 -7.5887849995977215 3.301149247034922
H 7.881499648028646 -7.156956829458734 1.9074223238380381
O 0.8325304328760543 11.706078396603248 1.1818745249122715
H 1.1922626750218175 11.892473839621866 0.30163773308709696
H 1.2499476294175516 10.868345379906586 1.4327295050656423
O 9.559120050277821 -10.568114359808762 1.9393338930910544
H 10.521889263159336 -10.474924086620547 1.997285360808576
H 9.222487411172343 -9.920240916195 2.5764370336020135
O 13.844485088443376 -0.859764198227805 0.7926305254427453
H 14.547713232245105 -1.113921325211984 0.17631754531955846
H 13.500351986658053 -0.03130055704756929 0.42632143765212227
O 5.409335088455231 9.687824241321708 1.9726206762696084
H 5.2906674966278535 10.431610721801905 2.5822656803537685
H 5.045427998966997 10.011476084078037 1.134895745758027
O 6.000698347009009 0.9948270775705392 -6.178915332976356
H 5.980809085504508 1.6815399838481673 -6.862287236502203
H 6.488274805045032 1.4051184367758618 -5.4489207148931165
O 3.7021058557619604 12.710560218885453 -0.017023728742600497
H 3.5076287443959893 12.139123374491485 0.7410039375887898
H 4.525356747757975 12.34860830070248 -0.3778709568758236
O -7.291726338364153 -1.1485049478330254 5.416082331203816
H -7.860901942648566 -0.8915464725131534 6.157013387611065
H -7.383794002206629 -2.112179530770601 5.373458537676281
O -0.6539318496483721 -1.6623083528665332 10.897686936634853
H 0.03615633405134222 -1.801417227878988 11.563565586623573
H -1.3752934447191247 -2.242798355142101 11.183397893224011
O 9.965235822300677 1.8184633886428525 2.666897840776444
H 10.45309147327015 1.0664562909629494 2.298863133505238
H 9.188553762467622 1.4134227609273373 3.081227434377121
O -8.876643129315525 6.916552430948755 3.2359575342729787
H -9.268721224604237 6.538250052098167 4.037287325464322
H -8.769822163940061 6.155410857250518 2.6458603130929204
O -1.7083785088601913 -4.484800006953363 3.3925355437963547
H -1.639550211473662 -4.368141424218344 4.352025406928388
H -1.1487077640577736 -3.781480307978576 3.0304968680359856
O -0.9773466547024547 0.9990586502175126 -4.825285599696502
H -0.9966939890655911 1.1278930168388106 -5.785491173274541
H -0.5026066673674935 1.7762818753049978 -4.4943657497179785
O -0.26091061440975327 -5.082675674508967 -6.362556941683493
H -0.4470570298740706 -4.816022292193786 -7.275361872985719
H 0.06260135863979377 -4.271312962519499 -5.943042344575495
O 12.775376230281875 3.95341936903899 -4.418016663294501
H 12.533317749600496 3.278772036111767 -5.070110234037542
H 13.343433438995019 3.4802906469923123 -3.7915805817159356
O -10.898893539741016 -5.389769516565542 -0.4711849546915401
H -11.498533985346375 -4.976648519722177 -1.1105046985297475
H -10.23001954709902 -5.822092585483212 -1.0231507963418771
O 3.2841298951785567 -5.354809216196681 5.551646547236483
H 3.083338414121842 -4.556028784176451 5.041156626222731
H 3.0301570148147388 -5.123528235377676 6.457719849045505
O -6.8081270515876895 -3.3755538883735667 -9.61650228942153
H -7.214625373414439 -3.858045177682919 -10.351980791481678
H -5.864529821284009 -3.581762592261931 -9.694375145436327
O -9.016987260701793 -2.435957304391536 -1.7663082359332156
H -8.987860344213772 -3.0751628428306916 -2.4939999696121196
H -8.380212361518376 -2.783477483489162 -1.1238836121913292
O 5.894623302303241 6.156592233736459 -2.2109006171232455
H 6.661651917110272 6.096594688069448 -2.7999971758308515
H 5.663142275319764 5.232580683603338 -2.033189802406583
O -3.676242780782816 1.0892327133588453 -10.36365259990035
H -3.2757758113926236 1.7879013685741674 -9.8247132029854
H -3.568795353564761 0.28934615129408137 -9.827370507608958
O 14.858793538789474 0.6923728316696414 -1.792562421359846
H 15.61181150466821 0.7364964050698841 -1.1842989831735267
H 15.265754550234519 0.5355419116373916 -2.657865109432327
O -7.179400867541468 2.4181805086450017 5.746632051358209
H -6.293769410824414 2.261340130111142 6.107222366583928
H -7.760214834984401 1.8895689514661143 6.314247150822725
O 15.849273019506235 4.083331485503974 -2.0066239990160817
H 16.283977714062516 4.713780210100462 -2.600369391491166
H 15.905062908917145 3.2395311326722167 -2.4797523083577664
C 7.709989552710998 -9.197763424282657 -8.934520679564882
O 7.876572207037038 -8.307751764471915 -8.151610900612912
O 7.5434068983849585 -10.087775084093398 -9.717430458516851