146

C -5.3564454929577465 1.0091607042253532 -0.0734429577464788
C -4.079135492957747 0.16955070422535368 -0.19788295774647868
C -4.333545492957747 -1.2789292957746463 0.3017270422535212
C -3.1403854929577464 -2.1745492957746464 0.7330270422535212
C -2.905235492957746 0.902300704225353 0.41966704225352136
C -2.7423854929577463 1.056130704225354 1.8024770422535212
C -1.8861754929577463 1.3499307042253532 -0.4326129577464788
C -1.5304554929577463 1.5279207042253526 2.3254170422535214
H -3.5237954929577464 0.7301007042253529 2.484817042253521
C -0.6776454929577462 1.8010507042253527 0.08546704225352131
H -1.9759254929577463 1.2426607042253535 -1.5115229577464788
C -0.4680254929577463 1.8513207042253539 1.4698070422535212
H -1.3950654929577464 1.5446707042253527 3.404047042253521
H 0.1461845070422536 1.9972507042253538 -0.6030529577464789
C -1.8679654929577463 -2.0866092957746467 -0.08765295774647863
C -0.6628654929577462 -1.814079295774647 0.5787970422535212
C -1.8438954929577462 -2.213429295774647 -1.4808029577464787
C 0.5129345070422537 -1.5763292957746469 -0.13022295774647863
H -0.6401854929577462 -1.7032692957746463 1.6609470422535213
C -0.6547954929577462 -1.9962392957746466 -2.1933129577464787
H -2.7578654929577464 -2.4351492957746466 -2.026182957746479
C 0.5308845070422537 -1.645769295774647 -1.5261029577464789
H 1.4044045070422537 -1.2610992957746463 0.41551704225352126
H -0.6795654929577464 -2.0467992957746466 -3.2793129577464786
C 1.7843245070422535 -1.2521692957746469 -2.2771629577464787
H 1.4981245070422535 -0.9384492957746469 -3.290282957746479
H 2.241984507042254 -0.38631929577464685 -1.8135029577464787
C 0.9385645070422537 2.0647807042253534 1.9815670422535212
H 1.0508945070422537 1.5807407042253532 2.9609770422535213
H 1.6053245070422537 1.5496207042253536 1.3096170422535214
C 3.9676945070422533 -1.6881692957746468 -3.314052957746479
H 4.795084507042254 -2.398849295774647 -3.4044129577464783
H 3.548404507042253 -1.4816192957746468 -4.303802957746479
H 4.307714507042253 -0.7637192957746466 -2.851282957746479
C 2.344694507042253 -3.565079295774647 -3.101282957746479
H 1.6334345070422536 -4.047909295774646 -2.4251929577464786
H 1.8561845070422536 -3.293109295774647 -4.041792957746479
H 3.1808045070422537 -4.243519295774647 -3.298122957746479
C 3.5156645070422536 -2.648489295774647 -1.1110629577464786
H 3.9311845070422535 -1.748249295774647 -0.6771029577464787
H 2.767184507042254 -3.1044092957746465 -0.45972295774647876
H 4.319224507042254 -3.371819295774647 -1.2863129577464787
C 2.963994507042253 3.381090704225353 2.401027042253521
H 3.3337945070422537 4.369820704225353 2.6912870422535216
H 3.120994507042253 2.671350704225353 3.2183370422535216
H 3.4665445070422534 3.0664207042253535 1.4881370422535212
C 1.2973745070422538 4.282440704225354 0.8488370422535213
H 1.7592145070422538 3.7367207042253527 0.02653704225352116
H 0.23311450704225378 4.4484607042253534 0.6605570422535213
H 1.7921845070422535 5.251370704225354 0.9736770422535213
C 0.7724845070422537 4.194670704225353 3.2772470422535216
H -0.2956954929577462 4.278220704225354 3.057857042253521
H 0.9298945070422537 3.612620704225354 4.190337042253521
H 1.2046345070422537 5.193640704225353 3.3918370422535213
N 2.876084507042253 -2.324759295774647 -2.4576629577464786
N 1.4527845070422536 3.504690704225353 2.1388470422535213
C -3.593905492957746 -3.637819295774647 0.8297870422535213
H -2.8952554929577463 -1.8680692957746468 1.7595270422535212
H -5.022615492957747 -1.2402792957746467 1.1579970422535213
H -4.898275492957747 -1.7933092957746464 -0.48931295774647876
H -3.883675492957746 0.07871070422535364 -1.2758929577464788
H -3.8751654929577466 -4.038529295774646 -0.1505529577464788
H -4.4603554929577465 -3.7321892957746465 1.4932570422535212
H -2.7953554929577464 -4.271929295774647 1.2313670422535212
H -5.648775492957746 1.147700704225353 0.9733970422535213
H -6.189795492957747 0.5254307042253537 -0.5943629577464788
H -5.2178854929577465 2.002970704225354 -0.5139729577464787
C 3.6710445070422537 1.0263707042253536 -0.27764295774647874
O 2.7356545070422538 1.6631507042253526 -0.7327029577464788
O 3.650814507042253 0.3883007042253537 0.7790570422535212
O 4.756604507042254 0.8696707042253538 -0.8334829577464786
O -1.8351941918357677 -10.984219209837509 -7.280612791128438
H -1.9410805524000292 -11.945304510609226 -7.2168124761841534
H -1.2691455590439742 -10.760543174782315 -6.526610191029121
O 11.507127983051767 4.340833499804882 -0.9903305895772074
H 11.389719288344196 4.348847059961184 -0.028499867380891775
H 11.420692635945642 3.4056443963278884 -1.2288934027072917
O -1.8669816295744448 10.606974193791345 -6.057468081917271
H -2.5286352193076596 10.785575458599054 -6.742510761100282
H -1.7500792479917673 9.645599669233068 -6.089945782122892
O -1.3340559230453812 11.39264029977848 2.2510502140756152
H -0.7590183281896962 11.789552294718526 2.9224368312160713
H -1.8225472932635953 12.145850713830555 1.886341840596434
O 6.989064598348839 1.6390159955061003 2.597747686581666
H 7.1545463932716515 1.8760936667096637 1.672881582615357
H 7.627538356513854 0.9322459037881461 2.776043064782103
O 3.563544248530148 3.235158185995835 -5.9818303225912075
H 3.0047454808073244 3.149031242448496 -5.194878326795626
H 3.8301000138261094 2.3249441489894584 -6.180375972566319
O -2.211365618248316 0.33120642829324215 -8.83761205906734
H -2.220395842510495 0.35772960216971506 -9.80621018687747
H -1.4370073094216185 0.8613305683660113 -8.596159061647214
O -10.446378911274294 3.571824042238417 1.0932020249681134
H -10.394454627680105 3.8481436299622174 0.16588400448464388
H -9.649921173662534 3.035260522320553 1.222494737801079
O 3.352692409046672 7.275669822052243 7.317656979749249
H 4.042056649550047 7.610475488108408 6.7246565861643095
H 3.009121728588627 6.494043787230237 6.859419188293737
O 8.017723280010134 1.4889715287861514 -1.5038060395981399
H 7.660273335464851 1.139600521192496 -0.673663405409552
H 8.82717920633433 1.9488156922821205 -1.2349447501990696
O 4.736725784873357 6.037597865096274 -9.629383198233786
H 3.962438527888199 6.595080767365605 -9.798674114256366
H 4.4002079316943945 5.340317813545518 -9.046701288010723
O -5.70585958438811 -7.241062604317246 6.567060425136425
H -5.0870556501051265 -7.979440001452453 6.6712135202212055
H -5.164995041206021 -6.456090361916251 6.740974394927191
O 0.5439280489378604 -1.7282959247345682 -5.26186323368686
H 0.22140334007221263 -1.997377798309017 -6.135098662643332
H 1.3892851022384414 -2.1931603069173393 -5.171119071820717
O -4.093914272355527 8.078802784934341 -11.237438708923436
H -4.4441007571023565 8.04784617187117 -12.140421804506248
H -4.700062107845522 7.5166610943662056 -10.731925637325885
O -0.9424995846605566 0.5404957504401169 13.911074831773458
H -1.0568555908559025 1.327233460507688 14.465090929287499
H -0.4008249250220306 0.8523756649431544 13.170614551721203
O -3.4604127072083957 -3.951992155672474 -2.1475681596910565
H -4.247463113595424 -3.8604202713852125 -1.5897746452844306
H -3.7200852851804043 -4.606668971525793 -2.8130982967498745
O -1.7478733146993968 -7.1956943745088 -11.092707601024536
H -1.4913519979795549 -7.293928837229466 -12.021962227756253
H -2.4462726582414716 -6.524268935384313 -11.11240990892206
O -3.3494241058881817 3.729100122033854 -6.421033503330081
H -3.975725778856172 3.4664099771867143 -7.112197347246765
H -3.7159000883155415 3.3398509185337746 -5.612861271575949
O 11.22207186039892 -1.1093966150528463 -6.430062122355045
H 11.847297864293857 -0.7782044625760294 -7.0921584590699815
H 11.696951836130749 -1.838641919164151 -6.003855318818841
O 2.4788897152409293 -1.4816647757407408 12.214322241583288
H 3.365106006116126 -1.674577953019325 12.555456450831926
H 2.4878951885006644 -0.5238605662410958 12.067720938669138
O -4.100844580047912 -11.022547607228459 -3.3546199535790047
H -4.304848757388205 -11.879344994224375 -3.7586594196769063
H -4.952608244216309 -10.560685202378904 -3.342631472064916
O -7.950203308476734 -0.4175841572446246 1.2517791072803794
H -7.865334422829734 -0.42094564496670683 2.217052814344511
H -7.035211296210032 -0.4641202738690593 0.9362066882738301
O -4.834413160258861 -9.227303643345426 -1.6266948347250356
H -4.832196408854517 -10.196203311848855 -1.6126992894637389
H -5.7446663102487285 -8.99878738348475 -1.867903180792933
O -1.233753492894395 -6.700000797931547 -7.20768408411974
H -1.609123646094095 -6.304667673044076 -6.406574650051246
H -0.3769070001875613 -7.047501554990614 -6.917823331206598
C -8.223436774205576 7.655483732195675 -6.345550738473477
O -7.194008984044986 7.367170698200672 -6.884041478016582
O -9.252864564366167 7.94379676619068 -5.807059998930374