146

C -5.3564454929577465 1.0091607042253532 -0.0734429577464788
C -4.079135492957747 0.16955070422535368 -0.19788295774647868
C -4.333545492957747 -1.2789292957746463 0.3017270422535212
C -3.1403854929577464 -2.1745492957746464 0.7330270422535212
C -2.905235492957746 0.902300704225353 0.41966704225352136
C -2.7423854929577463 1.056130704225354 1.8024770422535212
C -1.8861754929577463 1.3499307042253532 -0.4326129577464788
C -1.5304554929577463 1.5279207042253526 2.3254170422535214
H -3.5237954929577464 0.7301007042253529 2.484817042253521
C -0.6776454929577462 1.8010507042253527 0.08546704225352131
H -1.9759254929577463 1.2426607042253535 -1.5115229577464788
C -0.4680254929577463 1.8513207042253539 1.4698070422535212
H -1.3950654929577464 1.5446707042253527 3.404047042253521
H 0.1461845070422536 1.9972507042253538 -0.6030529577464789
C -1.8679654929577463 -2.0866092957746467 -0.08765295774647863
C -0.6628654929577462 -1.814079295774647 0.5787970422535212
C -1.8438954929577462 -2.213429295774647 -1.4808029577464787
C 0.5129345070422537 -1.5763292957746469 -0.13022295774647863
H -0.6401854929577462 -1.7032692957746463 1.6609470422535213
C -0.6547954929577462 -1.9962392957746466 -2.1933129577464787
H -2.7578654929577464 -2.4351492957746466 -2.026182957746479
C 0.5308845070422537 -1.645769295774647 -1.5261029577464789
H 1.4044045070422537 -1.2610992957746463 0.41551704225352126
H -0.6795654929577464 -2.0467992957746466 -3.2793129577464786
C 1.7843245070422535 -1.2521692957746469 -2.2771629577464787
H 1.4981245070422535 -0.9384492957746469 -3.290282957746479
H 2.241984507042254 -0.38631929577464685 -1.8135029577464787
C 0.9385645070422537 2.0647807042253534 1.9815670422535212
H 1.0508945070422537 1.5807407042253532 2.9609770422535213
H 1.6053245070422537 1.5496207042253536 1.3096170422535214
C 3.9676945070422533 -1.6881692957746468 -3.314052957746479
H 4.795084507042254 -2.398849295774647 -3.4044129577464783
H 3.548404507042253 -1.4816192957746468 -4.303802957746479
H 4.307714507042253 -0.7637192957746466 -2.851282957746479
C 2.344694507042253 -3.565079295774647 -3.101282957746479
H 1.6334345070422536 -4.047909295774646 -2.4251929577464786
H 1.8561845070422536 -3.293109295774647 -4.041792957746479
H 3.1808045070422537 -4.243519295774647 -3.298122957746479
C 3.5156645070422536 -2.648489295774647 -1.1110629577464786
H 3.9311845070422535 -1.748249295774647 -0.6771029577464787
H 2.767184507042254 -3.1044092957746465 -0.45972295774647876
H 4.319224507042254 -3.371819295774647 -1.2863129577464787
C 2.963994507042253 3.381090704225353 2.401027042253521
H 3.3337945070422537 4.369820704225353 2.6912870422535216
H 3.120994507042253 2.671350704225353 3.2183370422535216
H 3.4665445070422534 3.0664207042253535 1.4881370422535212
C 1.2973745070422538 4.282440704225354 0.8488370422535213
H 1.7592145070422538 3.7367207042253527 0.02653704225352116
H 0.23311450704225378 4.4484607042253534 0.6605570422535213
H 1.7921845070422535 5.251370704225354 0.9736770422535213
C 0.7724845070422537 4.194670704225353 3.2772470422535216
H -0.2956954929577462 4.278220704225354 3.057857042253521
H 0.9298945070422537 3.612620704225354 4.190337042253521
H 1.2046345070422537 5.193640704225353 3.3918370422535213
N 2.876084507042253 -2.324759295774647 -2.4576629577464786
N 1.4527845070422536 3.504690704225353 2.1388470422535213
C -3.593905492957746 -3.637819295774647 0.8297870422535213
H -2.8952554929577463 -1.8680692957746468 1.7595270422535212
H -5.022615492957747 -1.2402792957746467 1.1579970422535213
H -4.898275492957747 -1.7933092957746464 -0.48931295774647876
H -3.883675492957746 0.07871070422535364 -1.2758929577464788
H -3.8751654929577466 -4.038529295774646 -0.1505529577464788
H -4.4603554929577465 -3.7321892957746465 1.4932570422535212
H -2.7953554929577464 -4.271929295774647 1.2313670422535212
H -5.648775492957746 1.147700704225353 0.9733970422535213
H -6.189795492957747 0.5254307042253537 -0.5943629577464788
H -5.2178854929577465 2.002970704225354 -0.5139729577464787
C 3.6710445070422537 1.0263707042253536 -0.27764295774647874
O 2.7356545070422538 1.6631507042253526 -0.7327029577464788
O 3.650814507042253 0.3883007042253537 0.7790570422535212
O 4.756604507042254 0.8696707042253538 -0.8334829577464786
O 0.4740007624701712 -10.874584782148478 -1.5854011648615591
H 1.3825471695177263 -11.198864132299299 -1.6767996670743481
H 0.022641585554688426 -11.21836853441571 -2.370926192719513
O -8.96272675489656 -3.7780528731616316 -1.0492141856704018
H -8.222668261528321 -4.345479930259174 -0.785951354706445
H -9.529031034837065 -3.7523290551934996 -0.2633390734482314
O -4.021535513270357 -4.0977716964374 -8.073951177101115
H -3.8076212434920933 -4.700731415653217 -8.801720109584782
H -3.2363711531536254 -3.5350345884137133 -7.99775525099204
O 7.138723911764599 7.4653905090767125 3.081569661048922
H 7.05857946852515 7.526790950597146 4.045298985547734
H 6.515096781384834 8.129815163898222 2.752038138096083
O -7.800432651876049 -6.0745501331002805 -3.2913416021094295
H -8.069685931555302 -6.1388067263189114 -4.219964840301271
H -6.869859401580501 -6.344638715893156 -3.298235627008923
O 6.991675489238652 5.582920182356016 10.92224535168867
H 6.981304903043792 5.632518722404085 11.889922876831772
H 6.814243401417615 6.492560280688627 10.639341321995023
O -14.735942456591353 -3.630116578031302 -2.3274556099508668
H -15.220414428817858 -3.855393223985126 -3.1358519841478047
H -15.10264582462653 -2.7720603978423757 -2.066246544619571
O -5.9858866778817745 1.2240576562904482 2.5043285397449817
H -5.622021267913755 0.44503036687193 2.951190713877054
H -5.663024872497674 1.9692246401067586 3.0329572990404072
O 4.9737674200421305 9.113871674595478 -3.2657928908109435
H 5.627157327691469 8.402010804655642 -3.192970591132272
H 5.510109684751591 9.913959027799795 -3.3714297528849184
O -6.363595672870773 9.346059827964602 -5.05792232173606
H -6.740707874621997 10.218569803898006 -5.24628390509912
H -5.412318382146898 9.467244632314026 -5.197018344856187
O -10.81406166398131 -8.352818330255284 2.7186433446660225
H -11.079757746439476 -9.279484531429526 2.816942379593553
H -11.236812847531299 -7.907345593189333 3.468174812743282
O -6.506098090917232 -1.332590665854581 -9.994493664634977
H -5.957936878055425 -1.2595947204765832 -10.790206070955405
H -7.265223435980874 -1.862304977782241 -10.281013127361351
O -1.6329288445462793 0.2454497080214666 -10.357054648356545
H -2.04693011056299 -0.09790858070221775 -9.551030210636878
H -2.1536747605095687 1.0344507932170488 -10.569805495282587
O 5.074820276232673 2.7288807823665744 -7.010201883671777
H 5.053781900590726 3.0533106796963496 -6.097365652264992
H 6.0081648263287875 2.797345654689153 -7.261483511260686
O 2.6483444768720985 -1.9895473732056648 6.844795094436096
H 2.4085936036944022 -2.068685991641506 5.909261046534792
H 1.8029507872419077 -2.073078432615839 7.310943156694501
O 3.120743983486946 13.141160994904197 -4.451884273293845
H 2.4463571573796123 13.01843498159921 -3.766969613404642
H 2.6090739031954246 13.2454359539087 -5.268145509761115
O -5.336719569833543 -6.50389811921425 -7.511427630694173
H -6.239439729972124 -6.83645083818855 -7.395357141412118
H -4.8761768656864515 -7.228717587567216 -7.960314142246267
O 0.6287322258139357 -8.093498072926472 5.061577237922279
H 1.32178554053454 -8.463277191601309 4.494207990212425
H 0.84833601982378 -7.151249790706158 5.115468727132977
O 2.1612004111370267 -12.023241902373222 5.649279509169313
H 1.4980331117631387 -11.72516649300041 6.289847647830904
H 2.244069558073946 -12.972946687040029 5.822932815405975
O -9.577896326569407 2.1214479959037638 -9.855603317766178
H -9.45746300372508 2.0737529146817995 -10.815909701622866
H -10.52284245632736 2.306574099890064 -9.747127137070525
O 12.884837310762911 4.499843302554565 2.7179943404296623
H 12.817805872668245 4.481181334576405 1.7514924655436668
H 12.131773099827816 3.967354946788163 3.0151683458236382
O 0.6983105805776928 11.121392368921848 -5.189876149986788
H 0.044119303205819804 11.768680636138258 -5.493222533902163
H 0.2595154424146173 10.67385889529179 -4.450866974803516
O -6.909456179000574 0.8751749598708036 -9.069077432441038
H -6.627491339781518 0.7089023428371708 -9.98111723594139
H -7.876253476480609 0.8242951747528737 -9.110018577413442
O -10.64708186031681 1.6519947026556823 -5.502615879468458
H -10.38091578837075 2.1384233823594077 -4.707939770222373
H -11.606292508754215 1.782208100737475 -5.546449053940368
C 9.769784161637006 -3.4958037173399097 0.6357444213592648
O 9.54655706429368 -3.567882656072654 -0.5380496606256608
O 9.993011258980333 -3.4237247786071654 1.8095385033441906