146

C -5.3564454929577465 1.0091607042253532 -0.0734429577464788
C -4.079135492957747 0.16955070422535368 -0.19788295774647868
C -4.333545492957747 -1.2789292957746463 0.3017270422535212
C -3.1403854929577464 -2.1745492957746464 0.7330270422535212
C -2.905235492957746 0.902300704225353 0.41966704225352136
C -2.7423854929577463 1.056130704225354 1.8024770422535212
C -1.8861754929577463 1.3499307042253532 -0.4326129577464788
C -1.5304554929577463 1.5279207042253526 2.3254170422535214
H -3.5237954929577464 0.7301007042253529 2.484817042253521
C -0.6776454929577462 1.8010507042253527 0.08546704225352131
H -1.9759254929577463 1.2426607042253535 -1.5115229577464788
C -0.4680254929577463 1.8513207042253539 1.4698070422535212
H -1.3950654929577464 1.5446707042253527 3.404047042253521
H 0.1461845070422536 1.9972507042253538 -0.6030529577464789
C -1.8679654929577463 -2.0866092957746467 -0.08765295774647863
C -0.6628654929577462 -1.814079295774647 0.5787970422535212
C -1.8438954929577462 -2.213429295774647 -1.4808029577464787
C 0.5129345070422537 -1.5763292957746469 -0.13022295774647863
H -0.6401854929577462 -1.7032692957746463 1.6609470422535213
C -0.6547954929577462 -1.9962392957746466 -2.1933129577464787
H -2.7578654929577464 -2.4351492957746466 -2.026182957746479
C 0.5308845070422537 -1.645769295774647 -1.5261029577464789
H 1.4044045070422537 -1.2610992957746463 0.41551704225352126
H -0.6795654929577464 -2.0467992957746466 -3.2793129577464786
C 1.7843245070422535 -1.2521692957746469 -2.2771629577464787
H 1.4981245070422535 -0.9384492957746469 -3.290282957746479
H 2.241984507042254 -0.38631929577464685 -1.8135029577464787
C 0.9385645070422537 2.0647807042253534 1.9815670422535212
H 1.0508945070422537 1.5807407042253532 2.9609770422535213
H 1.6053245070422537 1.5496207042253536 1.3096170422535214
C 3.9676945070422533 -1.6881692957746468 -3.314052957746479
H 4.795084507042254 -2.398849295774647 -3.4044129577464783
H 3.548404507042253 -1.4816192957746468 -4.303802957746479
H 4.307714507042253 -0.7637192957746466 -2.851282957746479
C 2.344694507042253 -3.565079295774647 -3.101282957746479
H 1.6334345070422536 -4.047909295774646 -2.4251929577464786
H 1.8561845070422536 -3.293109295774647 -4.041792957746479
H 3.1808045070422537 -4.243519295774647 -3.298122957746479
C 3.5156645070422536 -2.648489295774647 -1.1110629577464786
H 3.9311845070422535 -1.748249295774647 -0.6771029577464787
H 2.767184507042254 -3.1044092957746465 -0.45972295774647876
H 4.319224507042254 -3.371819295774647 -1.2863129577464787
C 2.963994507042253 3.381090704225353 2.401027042253521
H 3.3337945070422537 4.369820704225353 2.6912870422535216
H 3.120994507042253 2.671350704225353 3.2183370422535216
H 3.4665445070422534 3.0664207042253535 1.4881370422535212
C 1.2973745070422538 4.282440704225354 0.8488370422535213
H 1.7592145070422538 3.7367207042253527 0.02653704225352116
H 0.23311450704225378 4.4484607042253534 0.6605570422535213
H 1.7921845070422535 5.251370704225354 0.9736770422535213
C 0.7724845070422537 4.194670704225353 3.2772470422535216
H -0.2956954929577462 4.278220704225354 3.057857042253521
H 0.9298945070422537 3.612620704225354 4.190337042253521
H 1.2046345070422537 5.193640704225353 3.3918370422535213
N 2.876084507042253 -2.324759295774647 -2.4576629577464786
N 1.4527845070422536 3.504690704225353 2.1388470422535213
C -3.593905492957746 -3.637819295774647 0.8297870422535213
H -2.8952554929577463 -1.8680692957746468 1.7595270422535212
H -5.022615492957747 -1.2402792957746467 1.1579970422535213
H -4.898275492957747 -1.7933092957746464 -0.48931295774647876
H -3.883675492957746 0.07871070422535364 -1.2758929577464788
H -3.8751654929577466 -4.038529295774646 -0.1505529577464788
H -4.4603554929577465 -3.7321892957746465 1.4932570422535212
H -2.7953554929577464 -4.271929295774647 1.2313670422535212
H -5.648775492957746 1.147700704225353 0.9733970422535213
H -6.189795492957747 0.5254307042253537 -0.5943629577464788
H -5.2178854929577465 2.002970704225354 -0.5139729577464787
C 3.6710445070422537 1.0263707042253536 -0.27764295774647874
O 2.7356545070422538 1.6631507042253526 -0.7327029577464788
O 3.650814507042253 0.3883007042253537 0.7790570422535212
O 4.756604507042254 0.8696707042253538 -0.8334829577464786
O -0.8232050885693235 -0.10404971732998936 2.327521957136148
H -0.4175382992235499 -0.8172199104438026 2.8430702949046824
H -0.43114251708179724 0.7024323073304363 2.694721668789369
O -8.53832665679586 -7.533714122818421 3.1207342407631593
H -8.629776004562684 -8.039464573344492 3.942209045906749
H -9.27739384260219 -7.839837658494071 2.573897866634894
O 7.78146863607798 2.3762212118946464 8.392347312917412
H 8.247592171134098 2.920779934626715 7.740310500717971
H 7.309216024490961 1.7217815891088137 7.856018873174396
O -2.5632618210716416 -6.787985857698122 -8.418288923269717
H -2.2863045988358324 -7.000393345065397 -9.32224971515272
H -1.9994830403032238 -6.039861272434875 -8.170448176861928
O 7.000383883085043 -5.885892722398816 -5.420388463594955
H 7.86412167768774 -6.0592153471795385 -5.01680000140359
H 7.180766527542688 -5.189099256850909 -6.069158771368212
O 6.9617111483727925 -9.382849681409308 5.327110130162685
H 7.3064223201183705 -8.918283942231188 4.549729760616553
H 6.9369066169655 -8.701106578108558 6.015276549441866
O 0.2133182687596662 9.896906295366293 -0.3171529498594656
H 0.07894727872340468 9.682361628307307 0.6181985240652963
H 0.27845836535593804 9.031762871065043 -0.7487147270174213
O -11.895582131460763 2.913708512336805 3.486472035191621
H -12.01811709686974 3.684888459254459 4.0602612200185115
H -11.860346041231308 3.2893034418726437 2.593920181710655
O 2.636747691371835 -6.7192070698191095 6.678618419130631
H 1.8167327252465695 -7.2037089285330955 6.856946098230858
H 3.171264398418979 -6.8630184241703 7.473962450696314
O -2.594836577420775 7.03475041458382 -4.991860373623931
H -2.5671571203093437 6.92477276387842 -5.954204449773069
H -1.9028762668252517 7.688540084165304 -4.810995947024672
O -1.0355775115827919 -5.116028571333751 -4.242939929533685
H -1.0081287178386227 -5.509972436971121 -5.127825318354564
H -1.8692431438321 -4.622215788276664 -4.232333648574933
O 0.010036260355708499 -2.8670684441114744 -7.862615880326236
H 0.8496813290091688 -3.143439493569759 -8.259582577427208
H -0.46135525842207065 -3.699579349508179 -7.708740694802581
O 2.8076359816243373 6.514945656949243 3.720772612726517
H 2.5902726789212496 6.416615762547421 2.7815964932446944
H 3.7274764833493164 6.819649634540356 3.717473866526426
O 0.5276345323025007 2.6580099848352967 -11.988894320800828
H 1.0883020425654362 3.402767052304922 -11.72440195741465
H -0.3279830451130161 3.067739189869192 -12.186384786545105
O 6.092373030130024 -0.20212282795159497 -10.821760440068232
H 6.100511822491624 0.402384186208701 -11.579040036247806
H 6.65235165022091 -0.9402845986513362 -11.105491103935442
O 8.074931578219761 13.406851781662635 -1.631749477856721
H 8.772691173850026 13.906075826489552 -1.1813338290693551
H 8.555189965389575 12.85311166721295 -2.265536280734708
O -9.37474782476704 1.2370748689123925 -3.079930040066248
H -9.37730876380957 1.2357902612536744 -4.048929084583003
H -9.598293183522806 2.150582257407442 -2.846491251421967
O -1.824749508934553 -5.656072758645631 6.117963959478217
H -1.9109255277984092 -5.682630029255227 5.153165658251196
H -2.274473773548311 -6.46121697144831 6.4153741588795965
O 0.9974723903994898 0.5285905673719453 12.279951438640644
H 0.1738619461630435 0.6795117655252065 12.767656252019218
H 0.7448724236072843 0.646340748549445 11.351894276656942
O -8.173898615088433 -2.2618313548409112 4.977512066879064
H -7.87341614144314 -2.337104871126033 5.895668664458192
H -8.982747446072352 -2.794794099433023 4.951507725072647
O -1.014054065009171 -10.324894913562446 -1.0607746534170976
H -1.482952031017325 -9.742537725768562 -0.4443639460164108
H -0.12081172254819794 -9.95155257463443 -1.1019518303308997
O 2.458959023777332 -15.884397477004665 2.6639242034291666
H 3.062850435318292 -16.390620056761453 2.099990501907925
H 2.3785916673509386 -15.030298406972525 2.213349225327554
O -8.92500758441478 0.7492145184316019 -11.042582606338732
H -9.640860222473481 1.3995515865788333 -11.102449586202944
H -8.122419514296856 1.2696639529857432 -11.19732988443001
O -4.342455419773077 9.487787747268944 3.6107732129876355
H -4.072538924371141 10.291145901866482 3.1409561019203855
H -5.087732905787816 9.151679733111061 3.0906243727905283
C 1.941090057357272 -11.405741587167924 -10.965928959081326
O 2.6441776364461607 -11.101584497340475 -10.046160195674661
O 1.2380024782683832 -11.709898676995374 -11.885697722487988