146

C -5.3564454929577465 1.0091607042253532 -0.0734429577464788
C -4.079135492957747 0.16955070422535368 -0.19788295774647868
C -4.333545492957747 -1.2789292957746463 0.3017270422535212
C -3.1403854929577464 -2.1745492957746464 0.7330270422535212
C -2.905235492957746 0.902300704225353 0.41966704225352136
C -2.7423854929577463 1.056130704225354 1.8024770422535212
C -1.8861754929577463 1.3499307042253532 -0.4326129577464788
C -1.5304554929577463 1.5279207042253526 2.3254170422535214
H -3.5237954929577464 0.7301007042253529 2.484817042253521
C -0.6776454929577462 1.8010507042253527 0.08546704225352131
H -1.9759254929577463 1.2426607042253535 -1.5115229577464788
C -0.4680254929577463 1.8513207042253539 1.4698070422535212
H -1.3950654929577464 1.5446707042253527 3.404047042253521
H 0.1461845070422536 1.9972507042253538 -0.6030529577464789
C -1.8679654929577463 -2.0866092957746467 -0.08765295774647863
C -0.6628654929577462 -1.814079295774647 0.5787970422535212
C -1.8438954929577462 -2.213429295774647 -1.4808029577464787
C 0.5129345070422537 -1.5763292957746469 -0.13022295774647863
H -0.6401854929577462 -1.7032692957746463 1.6609470422535213
C -0.6547954929577462 -1.9962392957746466 -2.1933129577464787
H -2.7578654929577464 -2.4351492957746466 -2.026182957746479
C 0.5308845070422537 -1.645769295774647 -1.5261029577464789
H 1.4044045070422537 -1.2610992957746463 0.41551704225352126
H -0.6795654929577464 -2.0467992957746466 -3.2793129577464786
C 1.7843245070422535 -1.2521692957746469 -2.2771629577464787
H 1.4981245070422535 -0.9384492957746469 -3.290282957746479
H 2.241984507042254 -0.38631929577464685 -1.8135029577464787
C 0.9385645070422537 2.0647807042253534 1.9815670422535212
H 1.0508945070422537 1.5807407042253532 2.9609770422535213
H 1.6053245070422537 1.5496207042253536 1.3096170422535214
C 3.9676945070422533 -1.6881692957746468 -3.314052957746479
H 4.795084507042254 -2.398849295774647 -3.4044129577464783
H 3.548404507042253 -1.4816192957746468 -4.303802957746479
H 4.307714507042253 -0.7637192957746466 -2.851282957746479
C 2.344694507042253 -3.565079295774647 -3.101282957746479
H 1.6334345070422536 -4.047909295774646 -2.4251929577464786
H 1.8561845070422536 -3.293109295774647 -4.041792957746479
H 3.1808045070422537 -4.243519295774647 -3.298122957746479
C 3.5156645070422536 -2.648489295774647 -1.1110629577464786
H 3.9311845070422535 -1.748249295774647 -0.6771029577464787
H 2.767184507042254 -3.1044092957746465 -0.45972295774647876
H 4.319224507042254 -3.371819295774647 -1.2863129577464787
C 2.963994507042253 3.381090704225353 2.401027042253521
H 3.3337945070422537 4.369820704225353 2.6912870422535216
H 3.120994507042253 2.671350704225353 3.2183370422535216
H 3.4665445070422534 3.0664207042253535 1.4881370422535212
C 1.2973745070422538 4.282440704225354 0.8488370422535213
H 1.7592145070422538 3.7367207042253527 0.02653704225352116
H 0.23311450704225378 4.4484607042253534 0.6605570422535213
H 1.7921845070422535 5.251370704225354 0.9736770422535213
C 0.7724845070422537 4.194670704225353 3.2772470422535216
H -0.2956954929577462 4.278220704225354 3.057857042253521
H 0.9298945070422537 3.612620704225354 4.190337042253521
H 1.2046345070422537 5.193640704225353 3.3918370422535213
N 2.876084507042253 -2.324759295774647 -2.4576629577464786
N 1.4527845070422536 3.504690704225353 2.1388470422535213
C -3.593905492957746 -3.637819295774647 0.8297870422535213
H -2.8952554929577463 -1.8680692957746468 1.7595270422535212
H -5.022615492957747 -1.2402792957746467 1.1579970422535213
H -4.898275492957747 -1.7933092957746464 -0.48931295774647876
H -3.883675492957746 0.07871070422535364 -1.2758929577464788
H -3.8751654929577466 -4.038529295774646 -0.1505529577464788
H -4.4603554929577465 -3.7321892957746465 1.4932570422535212
H -2.7953554929577464 -4.271929295774647 1.2313670422535212
H -5.648775492957746 1.147700704225353 0.9733970422535213
H -6.189795492957747 0.5254307042253537 -0.5943629577464788
H -5.2178854929577465 2.002970704225354 -0.5139729577464787
C 3.6710445070422537 1.0263707042253536 -0.27764295774647874
O 2.7356545070422538 1.6631507042253526 -0.7327029577464788
O 3.650814507042253 0.3883007042253537 0.7790570422535212
O 4.756604507042254 0.8696707042253538 -0.8334829577464786
O -2.303634347386586 -0.3528547928560968 9.435211473102177
H -1.9811726691131657 -0.39580393720906293 10.3479771571331
H -3.061806889859956 -0.9562244401976145 9.426188790217441
O 7.367998793534777 4.4671024824068075 -3.945916097949299
H 7.576751784001399 4.720341344639167 -3.0341816933519388
H 6.992025631383921 5.2723092910999725 -4.332242541357533
O -8.495798391481763 -3.5725383403519233 -3.9913505345307967
H -7.636854393359594 -3.6423365398292447 -4.434420254032849
H -8.376548708113678 -2.844626708245741 -3.362950890067877
O 7.7128857660079575 1.1726224045020817 7.347487396702603
H 7.301197998089762 0.8442578781377845 8.160910580827624
H 6.965229194541572 1.4865016103601998 6.816967425756168
O 4.6807808702908895 -7.079404908690606 -4.990692409736816
H 4.803781498820332 -6.927824595860657 -4.041555111426536
H 3.7533682962425847 -6.845923991228542 -5.146751766964027
O -7.298067063704235 3.77052393488185 -10.262166219281522
H -7.913040143107982 4.497855641421188 -10.4403909571022
H -7.568783366214611 3.077640542442627 -10.883122926578435
O 5.998949585952563 -9.339885704991058 -1.1547657223229932
H 6.923182056581867 -9.318477256751532 -1.4451161579665905
H 5.493343664540452 -9.248090403175782 -1.9762876143609676
O 9.862420985125684 1.8788315478116417 -2.138086354970512
H 9.516995981350147 1.167269485908044 -1.5783289470461757
H 9.761744620667027 1.5374516949389663 -3.039355465720467
O -9.197306852829211 9.75516237089202 4.478615305433358
H -10.1518736082813 9.73154237089202 4.643575185057694
H -9.093167405611826 9.283192370892019 3.6387574371405993
O 6.416637282806369 -6.76800305406677 -1.6774369134865261
H 5.527547786737794 -6.5100996536582745 -1.3911275337270363
H 6.466257050163442 -6.458474779321055 -2.594329529947348
O 3.8946611967974207 4.228412091659789 8.157655424566272
H 4.564145874902773 4.266865394136765 8.857140210827408
H 4.368185030823533 3.851466214372896 7.400919718718038
O 0.8986463128955826 2.5695024588404682 -7.430921925626012
H 1.1979537611777213 2.8291117083361326 -6.5466225159919595
H 1.2425039553576451 3.2673247182521887 -8.00864847018663
O -8.789044133766652 -6.789205047203751 8.718220315728924
H -8.812350098389341 -7.255621567182899 9.567266733072255
H -8.987648779518018 -7.478634340551913 8.066909799569832
O -0.608066958636674 -5.586715244885642 -2.0900447551929635
H -0.8450665020961039 -6.167315004589252 -2.828761542826854
H -0.18831444184696755 -6.181325740327749 -1.4503509787195634
O 5.591493908368196 -1.6634753299528873 7.703241149736593
H 4.703982233080235 -2.0518994529041423 7.7236637802504555
H 5.429252593908877 -0.714761854021243 7.591069670437221
O 0.9741465457995331 -7.99359120790393 5.452080052749927
H 1.305685049968307 -7.804124319036454 6.342670797804249
H 1.7274896183236799 -7.797102782886958 4.875167183926369
O 3.5260087719071502 9.619823250844139 -9.983892861689224
H 3.2111122839241952 10.10264404176008 -10.762796990972994
H 3.249018225741055 8.705752798522871 -10.147335175145084
O 9.615987943451897 -1.4552948849050535 -1.6091624852814868
H 10.214840883457898 -1.582764735317236 -0.8581006034221645
H 9.522993890427822 -0.4929257394531792 -1.673658053225222
O -10.872511530932197 -4.470545766631322 -5.838405809680869
H -11.396840325073846 -4.79435750972684 -6.586197644062207
H -10.316317130257211 -5.226632111647487 -5.597691930068812
O 8.281002611682727 -9.075659848221981 -3.4121675051780644
H 8.517167600306387 -9.33347999755832 -4.315894358626924
H 8.344218195049237 -8.10875971628967 -3.4205262843298576
O 1.8479890074556062 -9.029115476179552 -5.484768703514601
H 1.9913263379957278 -9.39911401734651 -6.3688065115906785
H 1.1243770696144442 -8.396949400834071 -5.6101232443021285
O 2.1669578510244034 -3.3687187762701094 11.088267573160477
H 2.945486221654462 -3.6907737761167145 10.609580295182557
H 1.5923710017802488 -3.0177072234243436 10.391415518026477
O 2.942971207285483 -10.025161294521187 5.774255694883076
H 3.6618349591207635 -9.454481422507365 5.463568155906067
H 2.1480232066896114 -9.635901243799546 5.379925587535427
O -2.2649162365862523 5.623062400060234 8.29467417176786
H -3.122508846280496 5.927746951505516 8.627344574431522
H -2.3838221289470365 5.593506161055994 7.333451116593979
C -2.213177606792567 -4.522534946778791 -6.191881041101107
O -2.934668998107724 -4.7377383762238 -5.261313518826002
O -1.4916862154774102 -4.307331517333782 -7.12244856337621