146

C -5.3564454929577465 1.0091607042253532 -0.0734429577464788
C -4.079135492957747 0.16955070422535368 -0.19788295774647868
C -4.333545492957747 -1.2789292957746463 0.3017270422535212
C -3.1403854929577464 -2.1745492957746464 0.7330270422535212
C -2.905235492957746 0.902300704225353 0.41966704225352136
C -2.7423854929577463 1.056130704225354 1.8024770422535212
C -1.8861754929577463 1.3499307042253532 -0.4326129577464788
C -1.5304554929577463 1.5279207042253526 2.3254170422535214
H -3.5237954929577464 0.7301007042253529 2.484817042253521
C -0.6776454929577462 1.8010507042253527 0.08546704225352131
H -1.9759254929577463 1.2426607042253535 -1.5115229577464788
C -0.4680254929577463 1.8513207042253539 1.4698070422535212
H -1.3950654929577464 1.5446707042253527 3.404047042253521
H 0.1461845070422536 1.9972507042253538 -0.6030529577464789
C -1.8679654929577463 -2.0866092957746467 -0.08765295774647863
C -0.6628654929577462 -1.814079295774647 0.5787970422535212
C -1.8438954929577462 -2.213429295774647 -1.4808029577464787
C 0.5129345070422537 -1.5763292957746469 -0.13022295774647863
H -0.6401854929577462 -1.7032692957746463 1.6609470422535213
C -0.6547954929577462 -1.9962392957746466 -2.1933129577464787
H -2.7578654929577464 -2.4351492957746466 -2.026182957746479
C 0.5308845070422537 -1.645769295774647 -1.5261029577464789
H 1.4044045070422537 -1.2610992957746463 0.41551704225352126
H -0.6795654929577464 -2.0467992957746466 -3.2793129577464786
C 1.7843245070422535 -1.2521692957746469 -2.2771629577464787
H 1.4981245070422535 -0.9384492957746469 -3.290282957746479
H 2.241984507042254 -0.38631929577464685 -1.8135029577464787
C 0.9385645070422537 2.0647807042253534 1.9815670422535212
H 1.0508945070422537 1.5807407042253532 2.9609770422535213
H 1.6053245070422537 1.5496207042253536 1.3096170422535214
C 3.9676945070422533 -1.6881692957746468 -3.314052957746479
H 4.795084507042254 -2.398849295774647 -3.4044129577464783
H 3.548404507042253 -1.4816192957746468 -4.303802957746479
H 4.307714507042253 -0.7637192957746466 -2.851282957746479
C 2.344694507042253 -3.565079295774647 -3.101282957746479
H 1.6334345070422536 -4.047909295774646 -2.4251929577464786
H 1.8561845070422536 -3.293109295774647 -4.041792957746479
H 3.1808045070422537 -4.243519295774647 -3.298122957746479
C 3.5156645070422536 -2.648489295774647 -1.1110629577464786
H 3.9311845070422535 -1.748249295774647 -0.6771029577464787
H 2.767184507042254 -3.1044092957746465 -0.45972295774647876
H 4.319224507042254 -3.371819295774647 -1.2863129577464787
C 2.963994507042253 3.381090704225353 2.401027042253521
H 3.3337945070422537 4.369820704225353 2.6912870422535216
H 3.120994507042253 2.671350704225353 3.2183370422535216
H 3.4665445070422534 3.0664207042253535 1.4881370422535212
C 1.2973745070422538 4.282440704225354 0.8488370422535213
H 1.7592145070422538 3.7367207042253527 0.02653704225352116
H 0.23311450704225378 4.4484607042253534 0.6605570422535213
H 1.7921845070422535 5.251370704225354 0.9736770422535213
C 0.7724845070422537 4.194670704225353 3.2772470422535216
H -0.2956954929577462 4.278220704225354 3.057857042253521
H 0.9298945070422537 3.612620704225354 4.190337042253521
H 1.2046345070422537 5.193640704225353 3.3918370422535213
N 2.876084507042253 -2.324759295774647 -2.4576629577464786
N 1.4527845070422536 3.504690704225353 2.1388470422535213
C -3.593905492957746 -3.637819295774647 0.8297870422535213
H -2.8952554929577463 -1.8680692957746468 1.7595270422535212
H -5.022615492957747 -1.2402792957746467 1.1579970422535213
H -4.898275492957747 -1.7933092957746464 -0.48931295774647876
H -3.883675492957746 0.07871070422535364 -1.2758929577464788
H -3.8751654929577466 -4.038529295774646 -0.1505529577464788
H -4.4603554929577465 -3.7321892957746465 1.4932570422535212
H -2.7953554929577464 -4.271929295774647 1.2313670422535212
H -5.648775492957746 1.147700704225353 0.9733970422535213
H -6.189795492957747 0.5254307042253537 -0.5943629577464788
H -5.2178854929577465 2.002970704225354 -0.5139729577464787
C 3.6710445070422537 1.0263707042253536 -0.27764295774647874
O 2.7356545070422538 1.6631507042253526 -0.7327029577464788
O 3.650814507042253 0.3883007042253537 0.7790570422535212
O 4.756604507042254 0.8696707042253538 -0.8334829577464786
O -5.837513525676104 8.48816728099597 2.799623867324024
H -5.313306092928308 8.315945756723956 2.0030602032460116
H -5.304404756374607 9.12625051558591 3.2972248823240733
O 4.843438356665379 5.0913141999056695 9.583598029436256
H 5.359892848145995 4.713206703581385 8.856083880877701
H 5.512841040387405 5.362569910161991 10.229571969296902
O 4.260521293144465 -0.10535077997409203 -5.79619639388074
H 4.440414571157626 0.29987442975029555 -6.657821773514781
H 3.505014591281256 -0.688217734689927 -5.964831149610587
O 0.9802683711921065 7.69717857594609 -10.87303686185675
H 1.3814107301178442 6.8151130217634925 -10.87657563283608
H 0.8387853053742305 7.893726753604085 -11.8112869885533
O -4.824860208134955 -0.18909433795303432 -6.383613069021781
H -3.9758613019473836 -0.004063547862819039 -6.812485801788624
H -4.583223608882861 -0.40924706824977375 -5.471414366136947
O -8.27334815162316 7.795802995250548 -2.2180301770456623
H -7.828829610158198 7.591550727576165 -3.054481989371834
H -7.579723711876617 7.683325290057638 -1.5508001966634626
O -7.798014086389496 5.476150561593999 -2.1230417515501765
H -8.244675214202724 5.73853063848808 -2.9419543775669412
H -8.092431573427994 4.564489286162099 -1.9775975818361096
O -0.5156354993248278 -9.56644684023274 -3.3301859649022583
H -0.4343205976899309 -9.660918214904251 -4.291138826930246
H -1.3519405077574942 -10.00913200452931 -3.121414025978095
O 4.303823900086935 2.73772866898209 -2.3059010519132124
H 4.401432610813315 2.0700582833361985 -3.001354970316007
H 4.94701601338429 3.4215516541327946 -2.546009308063769
O -7.549009045571084 2.5540327904024402 -2.5165833237773967
H -7.356685102249118 2.4907197762540023 -3.464196282724524
H -7.571675657298275 1.6317434232847416 -2.2202212271549673
O 5.016687960424954 14.579093349602095 0.41487784500659375
H 4.70818925954379 14.130306831053282 1.216368062803088
H 4.241531591173305 15.074940170790612 0.1111831341111853
O 13.043021642400285 4.22356214287542 1.663278164257628
H 13.31254262315839 5.147624401284215 1.5517669970337735
H 13.748534058397363 3.837579292137229 2.2038624908062134
O -5.485369210186226 -6.022692349228897 2.173186612581773
H -5.781622978286483 -5.343872121418903 1.5483633094772966
H -5.433981304810191 -6.828073838253703 1.6368267663803175
O -4.853253521582844 5.344395423054623 0.2876855846559272
H -4.838494494855212 5.336430833952232 -0.6811725542635352
H -4.107604212219355 4.778342013591729 0.5377907413024541
O 2.4950400986529195 -0.5327851804838768 -11.478568138700329
H 2.1363914681929494 -0.24027843181647945 -12.329907271333862
H 3.1751564135571333 0.1259118125917864 -11.272359472989619
O -8.33224594624356 -6.320875974914165 0.2855773364322136
H -8.72897617830187 -6.952639142600814 0.9040009613249671
H -8.148308358771565 -5.542244393382983 0.8322598480028987
O 1.0208725145237287 5.1609034249419246 -6.846881418685134
H 0.5842511403773387 5.211996929567299 -7.710431409318923
H 0.4449961915338494 5.6765570560163665 -6.262561525408003
O 7.926664124688722 3.7473614507613586 -7.009389443679198
H 8.61906807709854 4.176730886470394 -6.484807694791412
H 7.648797725640984 2.997930332126801 -6.461570854178625
O 1.9196166550757185 -5.7952880431660265 5.528591272644332
H 2.490206509946489 -6.101938103270811 4.807924695747438
H 1.036404086190045 -6.102694473367784 5.2748221075887995
O 6.873289688736584 6.216791263719599 3.1144813498175186
H 7.25524412403902 7.063454215919046 3.3905972885565108
H 7.377742367926774 5.9798516019399965 2.3217966486698267
O -1.7040429019088925 -1.3979585631159206 -9.332199592580123
H -1.1777878594928453 -0.5843300749278981 -9.337827242227913
H -1.0478293101751375 -2.101934027043801 -9.44517840701633
O -7.619032993210343 1.0466366625172538 -9.951236117163514
H -8.533803937161618 1.2646385182667288 -9.717491239375189
H -7.635698486986826 0.08818662887845896 -10.092861463182437
O 3.625582978581545 -0.025411768545468227 4.1134832197781614
H 3.594112773713726 -0.03819871162988475 3.145075517830198
H 2.7374033369888595 -0.30635690309523467 4.380257843633393
O -11.302196304246833 -3.6169217514043464 1.5816145648513213
H -12.20945629445055 -3.9527756860759204 1.6368305194403316
H -11.301672124991347 -3.0751132954563634 0.7782433762968833
C -2.800816978809086 -0.7534191002021844 10.478946986617263
O -3.837358448646141 -0.15557018287005686 10.447694616261728
O -1.7642755089720303 -1.3512680175343137 10.510199356972795