146

C -5.3564454929577465 1.0091607042253532 -0.0734429577464788
C -4.079135492957747 0.16955070422535368 -0.19788295774647868
C -4.333545492957747 -1.2789292957746463 0.3017270422535212
C -3.1403854929577464 -2.1745492957746464 0.7330270422535212
C -2.905235492957746 0.902300704225353 0.41966704225352136
C -2.7423854929577463 1.056130704225354 1.8024770422535212
C -1.8861754929577463 1.3499307042253532 -0.4326129577464788
C -1.5304554929577463 1.5279207042253526 2.3254170422535214
H -3.5237954929577464 0.7301007042253529 2.484817042253521
C -0.6776454929577462 1.8010507042253527 0.08546704225352131
H -1.9759254929577463 1.2426607042253535 -1.5115229577464788
C -0.4680254929577463 1.8513207042253539 1.4698070422535212
H -1.3950654929577464 1.5446707042253527 3.404047042253521
H 0.1461845070422536 1.9972507042253538 -0.6030529577464789
C -1.8679654929577463 -2.0866092957746467 -0.08765295774647863
C -0.6628654929577462 -1.814079295774647 0.5787970422535212
C -1.8438954929577462 -2.213429295774647 -1.4808029577464787
C 0.5129345070422537 -1.5763292957746469 -0.13022295774647863
H -0.6401854929577462 -1.7032692957746463 1.6609470422535213
C -0.6547954929577462 -1.9962392957746466 -2.1933129577464787
H -2.7578654929577464 -2.4351492957746466 -2.026182957746479
C 0.5308845070422537 -1.645769295774647 -1.5261029577464789
H 1.4044045070422537 -1.2610992957746463 0.41551704225352126
H -0.6795654929577464 -2.0467992957746466 -3.2793129577464786
C 1.7843245070422535 -1.2521692957746469 -2.2771629577464787
H 1.4981245070422535 -0.9384492957746469 -3.290282957746479
H 2.241984507042254 -0.38631929577464685 -1.8135029577464787
C 0.9385645070422537 2.0647807042253534 1.9815670422535212
H 1.0508945070422537 1.5807407042253532 2.9609770422535213
H 1.6053245070422537 1.5496207042253536 1.3096170422535214
C 3.9676945070422533 -1.6881692957746468 -3.314052957746479
H 4.795084507042254 -2.398849295774647 -3.4044129577464783
H 3.548404507042253 -1.4816192957746468 -4.303802957746479
H 4.307714507042253 -0.7637192957746466 -2.851282957746479
C 2.344694507042253 -3.565079295774647 -3.101282957746479
H 1.6334345070422536 -4.047909295774646 -2.4251929577464786
H 1.8561845070422536 -3.293109295774647 -4.041792957746479
H 3.1808045070422537 -4.243519295774647 -3.298122957746479
C 3.5156645070422536 -2.648489295774647 -1.1110629577464786
H 3.9311845070422535 -1.748249295774647 -0.6771029577464787
H 2.767184507042254 -3.1044092957746465 -0.45972295774647876
H 4.319224507042254 -3.371819295774647 -1.2863129577464787
C 2.963994507042253 3.381090704225353 2.401027042253521
H 3.3337945070422537 4.369820704225353 2.6912870422535216
H 3.120994507042253 2.671350704225353 3.2183370422535216
H 3.4665445070422534 3.0664207042253535 1.4881370422535212
C 1.2973745070422538 4.282440704225354 0.8488370422535213
H 1.7592145070422538 3.7367207042253527 0.02653704225352116
H 0.23311450704225378 4.4484607042253534 0.6605570422535213
H 1.7921845070422535 5.251370704225354 0.9736770422535213
C 0.7724845070422537 4.194670704225353 3.2772470422535216
H -0.2956954929577462 4.278220704225354 3.057857042253521
H 0.9298945070422537 3.612620704225354 4.190337042253521
H 1.2046345070422537 5.193640704225353 3.3918370422535213
N 2.876084507042253 -2.324759295774647 -2.4576629577464786
N 1.4527845070422536 3.504690704225353 2.1388470422535213
C -3.593905492957746 -3.637819295774647 0.8297870422535213
H -2.8952554929577463 -1.8680692957746468 1.7595270422535212
H -5.022615492957747 -1.2402792957746467 1.1579970422535213
H -4.898275492957747 -1.7933092957746464 -0.48931295774647876
H -3.883675492957746 0.07871070422535364 -1.2758929577464788
H -3.8751654929577466 -4.038529295774646 -0.1505529577464788
H -4.4603554929577465 -3.7321892957746465 1.4932570422535212
H -2.7953554929577464 -4.271929295774647 1.2313670422535212
H -5.648775492957746 1.147700704225353 0.9733970422535213
H -6.189795492957747 0.5254307042253537 -0.5943629577464788
H -5.2178854929577465 2.002970704225354 -0.5139729577464787
C 3.6710445070422537 1.0263707042253536 -0.27764295774647874
O 2.7356545070422538 1.6631507042253526 -0.7327029577464788
O 3.650814507042253 0.3883007042253537 0.7790570422535212
O 4.756604507042254 0.8696707042253538 -0.8334829577464786
O 0.7070558057209434 1.3828491907267393 -12.036076230044735
H -0.15050603860854073 1.1031658769811672 -11.682053230703573
H 1.342980265843347 0.7961300274205878 -11.599816389207467
O -10.01545475905156 -4.417218284736317 5.678944892079768
H -10.065657110388177 -4.263068122365664 6.634290278974674
H -9.123566848185654 -4.122572369499924 5.440865738465359
O -5.9132232519684 -11.930614245195333 -5.278124174404736
H -5.583373544957131 -12.266725785370872 -6.124998167537958
H -5.184983301556056 -12.096573743515703 -4.6608025695335975
O 2.885824181750564 -2.9876665701485576 11.648929243921069
H 2.2147484796175383 -3.37799422407898 11.06904211569365
H 3.356720109336533 -3.753460360158463 12.010562816567765
O -3.291677499343674 3.2868699517714433 8.714024679414603
H -2.462167310304623 3.657614888156834 9.050816002528771
H -3.0585289848471726 2.9518156128585553 7.8351946022872205
O 7.101726905915586 -5.3539660711586246 4.072086109280451
H 7.3100033507937425 -5.443463208010062 3.129972240417291
H 7.784168604005726 -4.752848705485661 4.4065904974343955
O -9.983426813704732 -2.3596845690312427 11.932052582727088
H -9.96594068614877 -2.4960148281892685 12.891258323265061
H -10.07621933672224 -1.4001678466850143 11.833669903814608
O 4.130704453534447 -10.865796065740561 2.9391263541163015
H 3.926860373580946 -10.727974292859441 2.0018856663056326
H 3.263396099393567 -10.856258453310385 3.371153201761874
O -5.047887579387314 -6.024128893025097 -2.4482816749554726
H -5.2448314353532535 -6.293907929249025 -3.357896838698556
H -5.814547961889689 -5.49011577538504 -2.191330721679058
O 7.924202232447543 1.3409921784413976 -4.66411871459132
H 8.460642507709423 1.753298372181575 -3.9704308953379845
H 7.0624072846751655 1.7766318660291416 -4.583561437499444
O 5.321153737901438 5.8516636584474115 0.268074751591484
H 4.399708636290788 5.739311637214282 -0.009923998302414527
H 5.528037703702655 6.767398835845967 0.02809547359190334
O 6.915600248498541 -3.02584212713804 3.6856492042063795
H 6.154749915109471 -2.471415613233215 3.4561162702707806
H 7.680522854408681 -2.5015223749573594 3.4046791902532365
O 9.455227922937791 -1.3195129765780371 -7.593249319803423
H 9.579693317173229 -1.3537330077166239 -8.553616287168863
H 9.170478122408863 -0.4084372870747708 -7.4264542857200215
O -7.170029437128345 8.115930861870611 -1.3739582134569113
H -7.293582143710037 9.076419104078697 -1.3398345826951457
H -6.793187814148341 7.959498333967243 -2.252867309839214
O 4.656705790526112 -6.589028366941175 6.257910737353429
H 4.436028882906941 -7.520872854326143 6.109806346217011
H 5.569635822573664 -6.6133189664727965 6.58184077248455
O 14.89968155778715 5.209128780230024 -1.063195703739705
H 15.749541070236633 5.061707657008556 -0.6216380309185312
H 14.75501921241929 4.395937889781143 -1.5699060014677295
O 2.389838511132094 -11.880335809656316 -0.107153510062024
H 2.7381815025636778 -12.684431111382715 0.30643476704701955
H 2.5593832955010045 -11.187478913801062 0.5487167760915133
O -11.29535806701686 -1.5638305098685759 6.62229990381015
H -12.044605579584278 -2.1714892358047653 6.7136585082497175
H -11.504242653354435 -0.8411963023147591 7.233142744452198
O -0.6197131224678758 -13.367994852447753 -6.618969434435876
H -0.9602980208029803 -13.818118142574942 -7.406597714534514
H 0.10501307106020152 -12.820820734998492 -6.957103097220173
O 12.22651205614731 -9.524486364464105 -2.7312283444708756
H 12.319999042650833 -10.488926127321172 -2.740365306476688
H 11.584174464558014 -9.344925652078249 -3.434166686929691
O 4.926339656002317 7.458038458996583 2.3182210272518495
H 5.730822562966206 7.6295257711009405 2.8304384723766267
H 4.848856295217452 6.49214350743908 2.32050480859206
O 3.007432256778483 9.600552690622472 -6.929624441720908
H 3.3084098198635807 10.398593988737938 -6.469722332656884
H 3.4422319118875198 8.87762616402511 -6.452876666310328
O 6.794834766629762 3.2871809097773386 -10.130036713547018
H 6.220901939378881 2.821076625633199 -10.756387464329908
H 7.461575121266639 2.6271167964809585 -9.887684469618979
O -3.41564836032577 4.3457710960741345 0.38818696781298745
H -3.4150467949129837 4.301079124632148 1.3561588799611055
H -3.7162527441906117 5.246621836706441 0.19565932874923553
C -6.312158722092189 10.737381558343964 -8.33944199322825
O -5.987828300557387 9.585297834336547 -8.321245074690696
O -6.63648914362699 11.88946528235138 -8.357638911765806