146

C -5.3564454929577465 1.0091607042253532 -0.0734429577464788
C -4.079135492957747 0.16955070422535368 -0.19788295774647868
C -4.333545492957747 -1.2789292957746463 0.3017270422535212
C -3.1403854929577464 -2.1745492957746464 0.7330270422535212
C -2.905235492957746 0.902300704225353 0.41966704225352136
C -2.7423854929577463 1.056130704225354 1.8024770422535212
C -1.8861754929577463 1.3499307042253532 -0.4326129577464788
C -1.5304554929577463 1.5279207042253526 2.3254170422535214
H -3.5237954929577464 0.7301007042253529 2.484817042253521
C -0.6776454929577462 1.8010507042253527 0.08546704225352131
H -1.9759254929577463 1.2426607042253535 -1.5115229577464788
C -0.4680254929577463 1.8513207042253539 1.4698070422535212
H -1.3950654929577464 1.5446707042253527 3.404047042253521
H 0.1461845070422536 1.9972507042253538 -0.6030529577464789
C -1.8679654929577463 -2.0866092957746467 -0.08765295774647863
C -0.6628654929577462 -1.814079295774647 0.5787970422535212
C -1.8438954929577462 -2.213429295774647 -1.4808029577464787
C 0.5129345070422537 -1.5763292957746469 -0.13022295774647863
H -0.6401854929577462 -1.7032692957746463 1.6609470422535213
C -0.6547954929577462 -1.9962392957746466 -2.1933129577464787
H -2.7578654929577464 -2.4351492957746466 -2.026182957746479
C 0.5308845070422537 -1.645769295774647 -1.5261029577464789
H 1.4044045070422537 -1.2610992957746463 0.41551704225352126
H -0.6795654929577464 -2.0467992957746466 -3.2793129577464786
C 1.7843245070422535 -1.2521692957746469 -2.2771629577464787
H 1.4981245070422535 -0.9384492957746469 -3.290282957746479
H 2.241984507042254 -0.38631929577464685 -1.8135029577464787
C 0.9385645070422537 2.0647807042253534 1.9815670422535212
H 1.0508945070422537 1.5807407042253532 2.9609770422535213
H 1.6053245070422537 1.5496207042253536 1.3096170422535214
C 3.9676945070422533 -1.6881692957746468 -3.314052957746479
H 4.795084507042254 -2.398849295774647 -3.4044129577464783
H 3.548404507042253 -1.4816192957746468 -4.303802957746479
H 4.307714507042253 -0.7637192957746466 -2.851282957746479
C 2.344694507042253 -3.565079295774647 -3.101282957746479
H 1.6334345070422536 -4.047909295774646 -2.4251929577464786
H 1.8561845070422536 -3.293109295774647 -4.041792957746479
H 3.1808045070422537 -4.243519295774647 -3.298122957746479
C 3.5156645070422536 -2.648489295774647 -1.1110629577464786
H 3.9311845070422535 -1.748249295774647 -0.6771029577464787
H 2.767184507042254 -3.1044092957746465 -0.45972295774647876
H 4.319224507042254 -3.371819295774647 -1.2863129577464787
C 2.963994507042253 3.381090704225353 2.401027042253521
H 3.3337945070422537 4.369820704225353 2.6912870422535216
H 3.120994507042253 2.671350704225353 3.2183370422535216
H 3.4665445070422534 3.0664207042253535 1.4881370422535212
C 1.2973745070422538 4.282440704225354 0.8488370422535213
H 1.7592145070422538 3.7367207042253527 0.02653704225352116
H 0.23311450704225378 4.4484607042253534 0.6605570422535213
H 1.7921845070422535 5.251370704225354 0.9736770422535213
C 0.7724845070422537 4.194670704225353 3.2772470422535216
H -0.2956954929577462 4.278220704225354 3.057857042253521
H 0.9298945070422537 3.612620704225354 4.190337042253521
H 1.2046345070422537 5.193640704225353 3.3918370422535213
N 2.876084507042253 -2.324759295774647 -2.4576629577464786
N 1.4527845070422536 3.504690704225353 2.1388470422535213
C -3.593905492957746 -3.637819295774647 0.8297870422535213
H -2.8952554929577463 -1.8680692957746468 1.7595270422535212
H -5.022615492957747 -1.2402792957746467 1.1579970422535213
H -4.898275492957747 -1.7933092957746464 -0.48931295774647876
H -3.883675492957746 0.07871070422535364 -1.2758929577464788
H -3.8751654929577466 -4.038529295774646 -0.1505529577464788
H -4.4603554929577465 -3.7321892957746465 1.4932570422535212
H -2.7953554929577464 -4.271929295774647 1.2313670422535212
H -5.648775492957746 1.147700704225353 0.9733970422535213
H -6.189795492957747 0.5254307042253537 -0.5943629577464788
H -5.2178854929577465 2.002970704225354 -0.5139729577464787
C 3.6710445070422537 1.0263707042253536 -0.27764295774647874
O 2.7356545070422538 1.6631507042253526 -0.7327029577464788
O 3.650814507042253 0.3883007042253537 0.7790570422535212
O 4.756604507042254 0.8696707042253538 -0.8334829577464786
O 0.23738964602667856 4.086428970948855 5.894299125583223
H -0.32159493322883803 3.334846097766608 5.646051705065603
H -0.12086408868874166 4.372694335364259 6.747919853423503
O 11.14613147336398 2.253678119814795 1.9533109012363385
H 10.955637684930384 2.156583792980336 1.008190715670089
H 10.594019765124397 3.0012124628307957 2.227768569987652
O -11.285372043049234 -0.41042461814773024 2.9919415029204726
H -11.023751486523334 -0.5327382106172522 3.916907138174172
H -11.22823754892434 -1.3003807601981627 2.612895781261722
O -7.775212160068241 -5.89705398826479 -1.497198823751916
H -7.801935000919331 -5.067484236119977 -1.9972660922301109
H -8.236884522155922 -5.687537387930831 -0.671412308622926
O 7.109043613785312 -1.5919236459395023 -12.098063257794198
H 6.928834242599924 -1.0791925023262334 -12.900309300979202
H 6.430178276996417 -2.2833417402158775 -12.104757861122655
O 4.889573384878306 8.55418153642121 5.633085699802429
H 4.089678144001427 8.292438323005793 6.113320486915456
H 5.300256305901364 9.21833742267371 6.206843873109026
O 14.586482911539246 0.25643499980499396 -3.8692300377713176
H 15.159272574910792 1.0366819235706313 -3.8234687398333165
H 14.290560531427824 0.1293932637877182 -2.9553086590089492
O -0.4040007835161663 -4.359227184880227 6.4147387868387575
H 0.128083669027095 -5.1058860205818455 6.728353319873252
H -1.1493623959051185 -4.32690935003804 7.033086236601473
O -4.172490009513451 -6.012383441332551 0.5876773736468324
H -3.87000726955601 -5.123653432220545 0.34761379908456225
H -5.0007924869475096 -6.118445551301781 0.09612088756870651
O 4.541468888994025 8.159706232779646 -4.0628435177665345
H 5.319344175119692 8.692462227795223 -4.286558617636596
H 3.9822501989060632 8.764707708307816 -3.5527360628464564
O 1.8826530388402798 4.448327698397394 11.806357783227803
H 2.533658878191057 5.161504623763542 11.887212140911712
H 2.2829982868330903 3.8370123589626584 11.169978036157415
O -2.6268929958734684 -3.033160003286839 -12.10840295197592
H -2.984276307564236 -2.907349545895619 -13.00026407022021
H -2.580543989332466 -2.135649462731525 -11.746065342163234
O -6.501724099841505 6.543918024105924 7.88141449786205
H -5.566180775425627 6.689323329203031 7.675057180835233
H -6.961705066048098 7.235656680846105 7.382538675839232
O 6.311420140507304 3.883883602319586 -9.56472347297168
H 6.795003751315293 4.645131518293465 -9.919146749130757
H 5.501855502982294 4.270644766933732 -9.19868680333965
O -4.275547074734087 -4.894734104772686 5.8542469846765
H -5.067155949777052 -5.12949737825002 5.347089266329025
H -3.559999155296638 -4.932177959492498 5.201904224287102
O -10.352840041282475 5.03397200589854 -1.8727972897900287
H -9.820083393148925 4.979871497004009 -2.680393009012746
H -10.306360853048233 4.140169561407968 -1.501423058611067
O -1.6211149279559944 -8.906964852362504 0.008899657940798722
H -2.2491799000127384 -9.149943459402753 0.7056515106804548
H -1.069086812166386 -9.69662256290502 -0.09438443501899885
O -2.3893197301115094 9.560044736617076 -0.7233314340369943
H -1.8820771353470942 9.089141810528496 -1.4015074739837603
H -2.075373664849831 9.17903700976039 0.11047485310781435
O 1.4826185937277487 10.575852821111543 -4.167053785819403
H 1.091858856255402 11.161787617848407 -4.832602130001457
H 1.444916450337383 9.69845573211379 -4.576583810240129
O -9.511089631801347 -7.4682803944582306 -0.7789962593639599
H -10.116185270199145 -7.212201671581637 -0.06678118441689396
H -8.692541905284187 -6.992286662312939 -0.5731527977918587
O -6.75969074263415 7.000057053970817 -7.343427240306574
H -6.885627491278125 6.99635486056202 -8.304204834760643
H -7.63548745633861 6.78040955469716 -6.991721345236139
O -1.1374436301813846 -5.574749781864154 2.8027466857467647
H -0.6297073181632804 -6.393085344009238 2.6955174822295103
H -0.47668507333191457 -4.924621165471356 3.0850459170553033
O 11.835113534324577 -3.25255351849544 -6.2470527672229075
H 12.612485738055916 -2.690987103625431 -6.10811761884092
H 11.673714011951146 -3.6481766773930255 -5.377343359074691
O 10.499579613273296 -9.504989222615158 -4.949841672044938
H 11.044968485930852 -10.06231558760286 -4.3745976739268215
H 10.333338144244337 -8.712052309063594 -4.418262167734989
C -9.748427404155935 -3.754414619893284 -1.7386034270323683
O -8.972693500811912 -4.596059830625925 -1.3883342337631701
O -10.52416130749996 -2.912769409160644 -2.088872620301567