146

C -5.3564454929577465 1.0091607042253532 -0.0734429577464788
C -4.079135492957747 0.16955070422535368 -0.19788295774647868
C -4.333545492957747 -1.2789292957746463 0.3017270422535212
C -3.1403854929577464 -2.1745492957746464 0.7330270422535212
C -2.905235492957746 0.902300704225353 0.41966704225352136
C -2.7423854929577463 1.056130704225354 1.8024770422535212
C -1.8861754929577463 1.3499307042253532 -0.4326129577464788
C -1.5304554929577463 1.5279207042253526 2.3254170422535214
H -3.5237954929577464 0.7301007042253529 2.484817042253521
C -0.6776454929577462 1.8010507042253527 0.08546704225352131
H -1.9759254929577463 1.2426607042253535 -1.5115229577464788
C -0.4680254929577463 1.8513207042253539 1.4698070422535212
H -1.3950654929577464 1.5446707042253527 3.404047042253521
H 0.1461845070422536 1.9972507042253538 -0.6030529577464789
C -1.8679654929577463 -2.0866092957746467 -0.08765295774647863
C -0.6628654929577462 -1.814079295774647 0.5787970422535212
C -1.8438954929577462 -2.213429295774647 -1.4808029577464787
C 0.5129345070422537 -1.5763292957746469 -0.13022295774647863
H -0.6401854929577462 -1.7032692957746463 1.6609470422535213
C -0.6547954929577462 -1.9962392957746466 -2.1933129577464787
H -2.7578654929577464 -2.4351492957746466 -2.026182957746479
C 0.5308845070422537 -1.645769295774647 -1.5261029577464789
H 1.4044045070422537 -1.2610992957746463 0.41551704225352126
H -0.6795654929577464 -2.0467992957746466 -3.2793129577464786
C 1.7843245070422535 -1.2521692957746469 -2.2771629577464787
H 1.4981245070422535 -0.9384492957746469 -3.290282957746479
H 2.241984507042254 -0.38631929577464685 -1.8135029577464787
C 0.9385645070422537 2.0647807042253534 1.9815670422535212
H 1.0508945070422537 1.5807407042253532 2.9609770422535213
H 1.6053245070422537 1.5496207042253536 1.3096170422535214
C 3.9676945070422533 -1.6881692957746468 -3.314052957746479
H 4.795084507042254 -2.398849295774647 -3.4044129577464783
H 3.548404507042253 -1.4816192957746468 -4.303802957746479
H 4.307714507042253 -0.7637192957746466 -2.851282957746479
C 2.344694507042253 -3.565079295774647 -3.101282957746479
H 1.6334345070422536 -4.047909295774646 -2.4251929577464786
H 1.8561845070422536 -3.293109295774647 -4.041792957746479
H 3.1808045070422537 -4.243519295774647 -3.298122957746479
C 3.5156645070422536 -2.648489295774647 -1.1110629577464786
H 3.9311845070422535 -1.748249295774647 -0.6771029577464787
H 2.767184507042254 -3.1044092957746465 -0.45972295774647876
H 4.319224507042254 -3.371819295774647 -1.2863129577464787
C 2.963994507042253 3.381090704225353 2.401027042253521
H 3.3337945070422537 4.369820704225353 2.6912870422535216
H 3.120994507042253 2.671350704225353 3.2183370422535216
H 3.4665445070422534 3.0664207042253535 1.4881370422535212
C 1.2973745070422538 4.282440704225354 0.8488370422535213
H 1.7592145070422538 3.7367207042253527 0.02653704225352116
H 0.23311450704225378 4.4484607042253534 0.6605570422535213
H 1.7921845070422535 5.251370704225354 0.9736770422535213
C 0.7724845070422537 4.194670704225353 3.2772470422535216
H -0.2956954929577462 4.278220704225354 3.057857042253521
H 0.9298945070422537 3.612620704225354 4.190337042253521
H 1.2046345070422537 5.193640704225353 3.3918370422535213
N 2.876084507042253 -2.324759295774647 -2.4576629577464786
N 1.4527845070422536 3.504690704225353 2.1388470422535213
C -3.593905492957746 -3.637819295774647 0.8297870422535213
H -2.8952554929577463 -1.8680692957746468 1.7595270422535212
H -5.022615492957747 -1.2402792957746467 1.1579970422535213
H -4.898275492957747 -1.7933092957746464 -0.48931295774647876
H -3.883675492957746 0.07871070422535364 -1.2758929577464788
H -3.8751654929577466 -4.038529295774646 -0.1505529577464788
H -4.4603554929577465 -3.7321892957746465 1.4932570422535212
H -2.7953554929577464 -4.271929295774647 1.2313670422535212
H -5.648775492957746 1.147700704225353 0.9733970422535213
H -6.189795492957747 0.5254307042253537 -0.5943629577464788
H -5.2178854929577465 2.002970704225354 -0.5139729577464787
C 3.6710445070422537 1.0263707042253536 -0.27764295774647874
O 2.7356545070422538 1.6631507042253526 -0.7327029577464788
O 3.650814507042253 0.3883007042253537 0.7790570422535212
O 4.756604507042254 0.8696707042253538 -0.8334829577464786
O 4.76025588923265 6.790988878147036 4.309247485696762
H 5.25789964772888 6.415770737045221 3.5672708060646823
H 3.944044043012293 6.269192782721441 4.331360856949434
O 13.453894433028264 -0.06480930543055852 -3.4340800048403564
H 13.571682124298228 -0.07539283049165935 -4.395839541150017
H 13.580115685374484 -0.9892943741502513 -3.172627337096275
O 3.732888800464405 -8.660024914562003 -1.0485293644010434
H 3.7774755156744813 -8.585518181097813 -2.0136346065354296
H 3.8670060740929455 -7.752237211485704 -0.7372481613740993
O -7.843704170083226 -10.690604052313766 9.9882375868162
H -8.003010234697932 -11.639169014233234 9.87070696231478
H -8.043877299200703 -10.53373888382994 10.923270196726603
O 2.6975906637121665 -5.502236942185918 6.651364861795375
H 2.7612317090924705 -6.179334268809703 5.961106660451975
H 3.4381609202546564 -5.701479639591348 7.243665450141527
O -2.103064799834552 3.6376336480444302 -4.295457448638886
H -2.336318964875102 4.324566665457891 -4.937861434444138
H -2.5298412703833306 3.9290954640022058 -3.475778366116632
O 5.982157840196102 -10.577677241899833 -0.859031947399572
H 6.857158929545198 -10.869666058827207 -1.1558197189253625
H 6.148854510898563 -10.186348009989478 0.01162044967354614
O 1.9272674011769393 0.35869821824219617 2.723409654278507
H 1.6830296059858245 -0.050819508815272446 1.8798395697414438
H 2.894297792029657 0.2995043159964883 2.741023552318535
O 5.67071930148794 -1.1602039712367516 -0.3241789505653456
H 5.686802545282325 -0.6379042528606469 0.4918551727121636
H 6.59335111418689 -1.1601328170854193 -0.6203418743639459
O 9.257043353805239 6.0941784401034385 -8.296284446789265
H 9.320573487572572 6.3898029757439385 -9.216902398455886
H 10.178190428238798 5.948649854538504 -8.033089761535244
O 2.757699942370115 -0.9646082026924954 -8.64121584651139
H 1.9575338249983862 -0.4514130273436101 -8.829184603247398
H 3.423038181377898 -0.29220074089631476 -8.431084512972483
O 1.1398677834410615 3.6682567750966597 -2.478850582039037
H 0.7778586581855431 4.01363893501365 -1.649014505610198
H 1.590261719157037 2.851613629277961 -2.2157893356388643
O -7.693356618068313 3.0639071100443562 3.6888880850918975
H -8.30124805156649 3.497618497248258 3.07136902094149
H -7.003365600526037 3.7267001780138935 3.8424448793489554
O 4.889442062441394 9.223097346084693 1.0925486788535128
H 4.831022831282906 8.469134635722781 1.6984321509127636
H 4.774603063573567 9.994711690735576 1.6673401643228276
O -9.207225037479688 -2.670390657064357 3.3015206509080777
H -9.371808791018783 -1.7633945786522787 3.6002473800705275
H -9.080116506156847 -3.1680155356775934 4.123210888010912
O 4.64774554296457 -3.0675640533820663 2.98885819904243
H 5.158654784230725 -2.2795952294160773 3.227697552052983
H 4.28945689398117 -2.8577070066169554 2.113329097165927
O 2.97756390872408 9.890773514817042 2.0818297234144314
H 2.4479766218186514 10.243818480240272 1.351169806053791
H 3.1101891321915214 10.653472158269578 2.664636100932621
O -6.541420004841071 -0.2513493299621133 1.0611584858935033
H -6.567280809409822 -0.16953211425338202 2.026355107779805
H -7.335452853233015 -0.7643832954773203 0.8483911711989853
O 12.423336690519987 1.5871140651837614 2.7457057842556774
H 11.894576567209434 2.327644259529108 3.0788650857308912
H 11.834956770768478 1.1439766475108493 2.1161025414182584
O 0.8124572271105825 3.11744608455001 6.101468320521345
H 0.20646889048469008 3.8102824104235293 5.798609742430074
H 0.24682782802447933 2.33624128025872 6.194979715237183
O -5.7567428406062096 -7.662455484247704 6.515549356725722
H -6.011522738794529 -7.026872101950814 7.201179231021757
H -5.07012852465998 -8.199961737191897 6.93817182830477
O 2.5277517948645682 8.86772702047685 6.613818242752705
H 2.4585273486673658 7.980532299785249 6.997303393085342
H 2.198697201620197 9.451559561987427 7.313692933278148
O 0.7856911835439222 -11.256961315447555 -8.51607066296447
H -0.07119736313708547 -10.826330838161468 -8.37726588098896
H 0.7255862272943938 -12.071370661964675 -7.994451304773271
O -8.708288266959372 1.2574268805137705 7.920654355177463
H -9.22949368187622 0.9014233201803776 8.655891553223988
H -9.09195972817579 2.133397732768959 7.7643430627275105
C -7.861764621858905 -0.912236833498449 -4.514370199194102
O -7.7747431355553855 -1.0036574612547255 -3.324039242257261
O -7.948786108162424 -0.8208162057421724 -5.704701156130942