146

C -5.3564454929577465 1.0091607042253532 -0.0734429577464788
C -4.079135492957747 0.16955070422535368 -0.19788295774647868
C -4.333545492957747 -1.2789292957746463 0.3017270422535212
C -3.1403854929577464 -2.1745492957746464 0.7330270422535212
C -2.905235492957746 0.902300704225353 0.41966704225352136
C -2.7423854929577463 1.056130704225354 1.8024770422535212
C -1.8861754929577463 1.3499307042253532 -0.4326129577464788
C -1.5304554929577463 1.5279207042253526 2.3254170422535214
H -3.5237954929577464 0.7301007042253529 2.484817042253521
C -0.6776454929577462 1.8010507042253527 0.08546704225352131
H -1.9759254929577463 1.2426607042253535 -1.5115229577464788
C -0.4680254929577463 1.8513207042253539 1.4698070422535212
H -1.3950654929577464 1.5446707042253527 3.404047042253521
H 0.1461845070422536 1.9972507042253538 -0.6030529577464789
C -1.8679654929577463 -2.0866092957746467 -0.08765295774647863
C -0.6628654929577462 -1.814079295774647 0.5787970422535212
C -1.8438954929577462 -2.213429295774647 -1.4808029577464787
C 0.5129345070422537 -1.5763292957746469 -0.13022295774647863
H -0.6401854929577462 -1.7032692957746463 1.6609470422535213
C -0.6547954929577462 -1.9962392957746466 -2.1933129577464787
H -2.7578654929577464 -2.4351492957746466 -2.026182957746479
C 0.5308845070422537 -1.645769295774647 -1.5261029577464789
H 1.4044045070422537 -1.2610992957746463 0.41551704225352126
H -0.6795654929577464 -2.0467992957746466 -3.2793129577464786
C 1.7843245070422535 -1.2521692957746469 -2.2771629577464787
H 1.4981245070422535 -0.9384492957746469 -3.290282957746479
H 2.241984507042254 -0.38631929577464685 -1.8135029577464787
C 0.9385645070422537 2.0647807042253534 1.9815670422535212
H 1.0508945070422537 1.5807407042253532 2.9609770422535213
H 1.6053245070422537 1.5496207042253536 1.3096170422535214
C 3.9676945070422533 -1.6881692957746468 -3.314052957746479
H 4.795084507042254 -2.398849295774647 -3.4044129577464783
H 3.548404507042253 -1.4816192957746468 -4.303802957746479
H 4.307714507042253 -0.7637192957746466 -2.851282957746479
C 2.344694507042253 -3.565079295774647 -3.101282957746479
H 1.6334345070422536 -4.047909295774646 -2.4251929577464786
H 1.8561845070422536 -3.293109295774647 -4.041792957746479
H 3.1808045070422537 -4.243519295774647 -3.298122957746479
C 3.5156645070422536 -2.648489295774647 -1.1110629577464786
H 3.9311845070422535 -1.748249295774647 -0.6771029577464787
H 2.767184507042254 -3.1044092957746465 -0.45972295774647876
H 4.319224507042254 -3.371819295774647 -1.2863129577464787
C 2.963994507042253 3.381090704225353 2.401027042253521
H 3.3337945070422537 4.369820704225353 2.6912870422535216
H 3.120994507042253 2.671350704225353 3.2183370422535216
H 3.4665445070422534 3.0664207042253535 1.4881370422535212
C 1.2973745070422538 4.282440704225354 0.8488370422535213
H 1.7592145070422538 3.7367207042253527 0.02653704225352116
H 0.23311450704225378 4.4484607042253534 0.6605570422535213
H 1.7921845070422535 5.251370704225354 0.9736770422535213
C 0.7724845070422537 4.194670704225353 3.2772470422535216
H -0.2956954929577462 4.278220704225354 3.057857042253521
H 0.9298945070422537 3.612620704225354 4.190337042253521
H 1.2046345070422537 5.193640704225353 3.3918370422535213
N 2.876084507042253 -2.324759295774647 -2.4576629577464786
N 1.4527845070422536 3.504690704225353 2.1388470422535213
C -3.593905492957746 -3.637819295774647 0.8297870422535213
H -2.8952554929577463 -1.8680692957746468 1.7595270422535212
H -5.022615492957747 -1.2402792957746467 1.1579970422535213
H -4.898275492957747 -1.7933092957746464 -0.48931295774647876
H -3.883675492957746 0.07871070422535364 -1.2758929577464788
H -3.8751654929577466 -4.038529295774646 -0.1505529577464788
H -4.4603554929577465 -3.7321892957746465 1.4932570422535212
H -2.7953554929577464 -4.271929295774647 1.2313670422535212
H -5.648775492957746 1.147700704225353 0.9733970422535213
H -6.189795492957747 0.5254307042253537 -0.5943629577464788
H -5.2178854929577465 2.002970704225354 -0.5139729577464787
C 3.6710445070422537 1.0263707042253536 -0.27764295774647874
O 2.7356545070422538 1.6631507042253526 -0.7327029577464788
O 3.650814507042253 0.3883007042253537 0.7790570422535212
O 4.756604507042254 0.8696707042253538 -0.8334829577464786
O 8.940322280726207 -8.792193923237162 -0.7489447208255351
H 9.399869713882616 -7.939127773121492 -0.7410925169191636
H 9.644634871233738 -9.438920839012614 -0.5919414865781398
O -8.364388007964422 -1.998117063553598 -0.5261509288344
H -8.379692003041507 -2.03321810017418 -1.4943973137297126
H -7.716232221633507 -2.67420931667508 -0.27764481982524575
O 2.393201749729989 10.62755250910841 -2.7023743975446384
H 2.5607668220624875 10.977534628922644 -1.8144544578853576
H 1.4327190331206276 10.501732260199484 -2.726954071244624
O -0.5575767040476585 4.402231654855809 15.069431326752452
H -1.2027293252595563 4.822072653609389 15.658055984755338
H -0.995523837075083 4.400928762297018 14.205045674717415
O -7.349022388680967 -1.7459912752838385 -7.6088376030467115
H -7.341111006018508 -1.921760796221383 -8.561733107513888
H -6.7755373400526935 -2.434035687280427 -7.239146204147447
O -4.931973472212933 9.736631387090736 -8.610300009758864
H -5.097803816114638 10.039359063026934 -9.515741122235934
H -5.716303234903915 9.21121742867377 -8.391830469644637
O 11.562709650294096 6.235081430017415 3.0481187303199344
H 11.560460148074338 6.285930655931721 4.015784299028298
H 10.635425262308383 6.07022080062503 2.8202446840261293
O -12.179685781517826 -3.541364938210327 -2.5093949225425396
H -12.986879998387046 -4.066923417478268 -2.403597294863775
H -11.973587850545211 -3.245314958179435 -1.6100395998404853
O -5.064165738961006 3.7701125455050617 -11.464078628278912
H -5.462810903573689 3.7350504746548516 -10.581570814818532
H -4.395138193125895 3.069354188422569 -11.446705885464501
O 3.309904821249109 -3.869678907359229 -8.316727266499283
H 3.246024791473012 -4.35496904829688 -7.4804377366087556
H 2.923426707417983 -3.0042314058487625 -8.11523971363602
O -5.975767700375984 -2.023600860606095 4.472080479137836
H -6.276458237551327 -2.6848212734847685 3.8307224485919007
H -6.350008092800814 -2.326184628120944 5.31312098744539
O 6.191327044444362 -10.940129818500962 -0.5010184762391026
H 6.269277248716682 -10.798776642225558 0.4544449726226313
H 6.141890769952527 -10.044224078162735 -0.8669022057125283
O 9.426474318257696 -2.90401045224396 -3.7759119440417117
H 8.71225386896162 -2.2669048943365926 -3.9274144680829064
H 9.640863292549422 -2.79640714164585 -2.8370717874919036
O 1.095267311875948 1.2349471865078891 -7.33674699246842
H 1.4729941122400212 1.2961839136157378 -6.446499900678821
H 0.5755620523685008 0.4173988588625197 -7.314767012837942
O -8.095024650703511 -4.304933423851886 10.616914027976843
H -8.428545216066805 -3.7350031496307414 11.326076119395974
H -7.318299982168513 -4.733478317896024 11.00679863574932
O -9.089585776248686 3.28119882634189 13.396296396152476
H -9.084695698562747 3.0946111491128496 14.3471531060444
H -9.860256735385137 3.855822521582163 13.274493990954074
O -6.098049517633011 6.528828547173079 -1.3872793110066461
H -5.98990147594189 5.829442886902718 -0.7253646214985734
H -5.692960967401044 6.159520537395239 -2.1863267468231276
O 0.2955613687175241 -10.05970365970059 2.376241191940823
H 1.2509005223062073 -10.213544711860608 2.4274992565819926
H 0.054103519863431315 -10.37889975950376 1.4937595199514284
O 5.295061575235924 7.2208660076456415 8.5818971842846
H 5.383369196201792 7.272474013169932 7.61830716008076
H 5.41647390122257 8.135690138836871 8.877393039397196
O -2.9555821608540396 -3.2235458056792554 -9.3113442355403
H -3.3358189063975177 -2.6672798692119084 -8.614956712558584
H -1.9991159724588883 -3.1459950209991923 -9.176732755523338
O -2.671481455484956 2.779668489471098 3.853402323425487
H -2.872548849559921 2.7080031023109004 4.798602478008145
H -3.25221743890825 3.490920288219041 3.5438404707446467
O 2.7571340566409193 -8.728642186604414 -9.92392559036255
H 3.2847143833502663 -8.937383200457141 -9.138398032026757
H 2.3936832311886778 -7.850438818872291 -9.735181619115677
O 7.993766452291928 3.0049636957882644 4.472016395066787
H 7.240471503805292 2.41718474167906 4.6333544829159
H 8.254952684170162 2.805857082031124 3.560369394887764
O 12.630229896412207 2.1240791052304218 9.159045816188407
H 13.466914375291505 1.6457221020610662 9.259549633137356
H 11.982490984915694 1.5593280331907327 9.606765006600586
C 4.601728776704784 1.7571718254130269 2.07971886314328
O 5.675735955618479 2.147307170874216 1.7231781934242092
O 3.5277215977910883 1.3670364799518375 2.4362595328623513