146

C -5.3564454929577465 1.0091607042253532 -0.0734429577464788
C -4.079135492957747 0.16955070422535368 -0.19788295774647868
C -4.333545492957747 -1.2789292957746463 0.3017270422535212
C -3.1403854929577464 -2.1745492957746464 0.7330270422535212
C -2.905235492957746 0.902300704225353 0.41966704225352136
C -2.7423854929577463 1.056130704225354 1.8024770422535212
C -1.8861754929577463 1.3499307042253532 -0.4326129577464788
C -1.5304554929577463 1.5279207042253526 2.3254170422535214
H -3.5237954929577464 0.7301007042253529 2.484817042253521
C -0.6776454929577462 1.8010507042253527 0.08546704225352131
H -1.9759254929577463 1.2426607042253535 -1.5115229577464788
C -0.4680254929577463 1.8513207042253539 1.4698070422535212
H -1.3950654929577464 1.5446707042253527 3.404047042253521
H 0.1461845070422536 1.9972507042253538 -0.6030529577464789
C -1.8679654929577463 -2.0866092957746467 -0.08765295774647863
C -0.6628654929577462 -1.814079295774647 0.5787970422535212
C -1.8438954929577462 -2.213429295774647 -1.4808029577464787
C 0.5129345070422537 -1.5763292957746469 -0.13022295774647863
H -0.6401854929577462 -1.7032692957746463 1.6609470422535213
C -0.6547954929577462 -1.9962392957746466 -2.1933129577464787
H -2.7578654929577464 -2.4351492957746466 -2.026182957746479
C 0.5308845070422537 -1.645769295774647 -1.5261029577464789
H 1.4044045070422537 -1.2610992957746463 0.41551704225352126
H -0.6795654929577464 -2.0467992957746466 -3.2793129577464786
C 1.7843245070422535 -1.2521692957746469 -2.2771629577464787
H 1.4981245070422535 -0.9384492957746469 -3.290282957746479
H 2.241984507042254 -0.38631929577464685 -1.8135029577464787
C 0.9385645070422537 2.0647807042253534 1.9815670422535212
H 1.0508945070422537 1.5807407042253532 2.9609770422535213
H 1.6053245070422537 1.5496207042253536 1.3096170422535214
C 3.9676945070422533 -1.6881692957746468 -3.314052957746479
H 4.795084507042254 -2.398849295774647 -3.4044129577464783
H 3.548404507042253 -1.4816192957746468 -4.303802957746479
H 4.307714507042253 -0.7637192957746466 -2.851282957746479
C 2.344694507042253 -3.565079295774647 -3.101282957746479
H 1.6334345070422536 -4.047909295774646 -2.4251929577464786
H 1.8561845070422536 -3.293109295774647 -4.041792957746479
H 3.1808045070422537 -4.243519295774647 -3.298122957746479
C 3.5156645070422536 -2.648489295774647 -1.1110629577464786
H 3.9311845070422535 -1.748249295774647 -0.6771029577464787
H 2.767184507042254 -3.1044092957746465 -0.45972295774647876
H 4.319224507042254 -3.371819295774647 -1.2863129577464787
C 2.963994507042253 3.381090704225353 2.401027042253521
H 3.3337945070422537 4.369820704225353 2.6912870422535216
H 3.120994507042253 2.671350704225353 3.2183370422535216
H 3.4665445070422534 3.0664207042253535 1.4881370422535212
C 1.2973745070422538 4.282440704225354 0.8488370422535213
H 1.7592145070422538 3.7367207042253527 0.02653704225352116
H 0.23311450704225378 4.4484607042253534 0.6605570422535213
H 1.7921845070422535 5.251370704225354 0.9736770422535213
C 0.7724845070422537 4.194670704225353 3.2772470422535216
H -0.2956954929577462 4.278220704225354 3.057857042253521
H 0.9298945070422537 3.612620704225354 4.190337042253521
H 1.2046345070422537 5.193640704225353 3.3918370422535213
N 2.876084507042253 -2.324759295774647 -2.4576629577464786
N 1.4527845070422536 3.504690704225353 2.1388470422535213
C -3.593905492957746 -3.637819295774647 0.8297870422535213
H -2.8952554929577463 -1.8680692957746468 1.7595270422535212
H -5.022615492957747 -1.2402792957746467 1.1579970422535213
H -4.898275492957747 -1.7933092957746464 -0.48931295774647876
H -3.883675492957746 0.07871070422535364 -1.2758929577464788
H -3.8751654929577466 -4.038529295774646 -0.1505529577464788
H -4.4603554929577465 -3.7321892957746465 1.4932570422535212
H -2.7953554929577464 -4.271929295774647 1.2313670422535212
H -5.648775492957746 1.147700704225353 0.9733970422535213
H -6.189795492957747 0.5254307042253537 -0.5943629577464788
H -5.2178854929577465 2.002970704225354 -0.5139729577464787
C 3.6710445070422537 1.0263707042253536 -0.27764295774647874
O 2.7356545070422538 1.6631507042253526 -0.7327029577464788
O 3.650814507042253 0.3883007042253537 0.7790570422535212
O 4.756604507042254 0.8696707042253538 -0.8334829577464786
O -5.161828064038945 3.284528827110237 9.001783551938807
H -5.767881036109 3.1624210662323637 9.74794495986503
H -4.8091837093981935 2.3967807126309726 8.83897326762446
O -3.5440786740316486 -1.2174001089641195 12.602285917098392
H -4.285765878116694 -1.8185711178816257 12.436572712332993
H -3.2437504183373447 -0.9663181455727492 11.715875893017465
O 1.8645624325268022 -9.606301275425519 5.750788113702308
H 2.6007042144699533 -9.90908587960916 6.30340381855236
H 1.6356582880773738 -8.740091176528862 6.119901783895269
O 7.368151776850418 -3.4094714522833733 5.413854473044937
H 7.361512436979861 -2.623517663429287 4.847109452906258
H 7.303315609519315 -3.051083958426204 6.31180581913925
O -7.207819396875338 -2.675292515700986 -7.822959337608113
H -7.577409370892774 -1.7905107948369383 -7.962715963320978
H -6.388173678938177 -2.51179994778289 -7.332640031846223
O -9.223609264881693 -1.6989760350037653 -5.434779940147508
H -8.528290873142963 -1.2570826086985427 -5.944907268172675
H -8.900094009051376 -1.6674662757611003 -4.521923457113338
O -6.626366862222082 8.747131465179852 -6.581260155172635
H -6.73924919591931 8.652655672231191 -7.539017567143846
H -7.382547656313017 9.288306437935022 -6.3087125449988415
O 7.2852866009211175 -0.42995631713233085 -0.25500006211657467
H 7.202158460857983 0.4031407131461905 0.23285894146002617
H 7.1520479020848935 -0.17382138019105398 -1.179988866108557
O 8.891378617943234 -0.5789495416741937 2.98549927502469
H 9.038793388083745 -0.22780754661158742 3.876529881540468
H 8.91817363661173 0.20556467172336035 2.4173607177591485
O -6.307570690480695 -4.399114429127767 0.41022667903571985
H -5.913527861485625 -5.265449069932622 0.22812259901803866
H -7.1949553581403 -4.609741158238747 0.7375595018425094
O 13.236880482170974 -3.300048023251297 1.8643999624576981
H 12.908346768195715 -2.396873650960769 1.74067038265063
H 13.850578988163598 -3.429127316985346 1.1257020377472369
O -2.095251395831884 11.999538857533512 6.516183769777136
H -1.8209097229224795 12.35892376469814 5.6591268919052276
H -1.3198608021886438 12.128113526409187 7.082928797204015
O -9.067165716274124 -5.2207072699525 6.164881467464777
H -9.063173527752998 -6.156686389607778 5.914093694835918
H -8.564443347137544 -4.787118498738493 5.459025291358886
O 0.4781197430259301 12.054914445865485 4.635353917645401
H 0.6269629765190512 12.013609886800415 5.59196615995874
H -0.43745726248764605 12.361600726281758 4.55396462670843
O -4.5699763399600615 5.528028723564761 -0.6067832935051078
H -4.837385978378434 5.727989157197757 0.3028733819292342
H -5.015038653293524 4.689877877099881 -0.8027032774793554
O -8.831403410077982 6.008338515520333 -0.8941908463634674
H -8.186639276208757 6.204247328555731 -0.19786742614056063
H -8.320501607273261 6.083501672653524 -1.714124863221322
O 2.932613957641388 6.599085222340679 2.3018728531001393
H 2.191694300622125 5.991083553031215 2.4444890823987846
H 2.574552537793463 7.266743625664061 1.6977319586159472
O 1.5873913921622735 6.2975198601416675 -2.573461432104473
H 1.7657657535873277 6.357447670370051 -3.5240184275799873
H 1.2829166841025685 7.186256724537142 -2.335966416753714
O 6.689100884264792 -3.435828986898737 2.533704325285469
H 6.349298621009826 -4.019364296914088 1.8387307137345767
H 7.207880878120415 -2.7746976139047943 2.051278610881372
O 9.387385199862607 -4.4539192526126445 -6.18899580177175
H 9.858060230020202 -4.262204975817539 -7.014027927788111
H 8.698423984952454 -5.08204597816397 -6.453100336563743
O -3.288801702886395 -3.1733894163722622 -11.553306466510561
H -3.1102440469803665 -2.8792601896245724 -12.459161045562936
H -3.2262722156066803 -4.139032754468426 -11.6041488809992
O 2.71404055362428 9.546612831148325 3.8449224265543487
H 3.4016569618175962 10.09706610701989 4.248843487116417
H 2.826747907287122 9.691919429529568 2.893531345454052
O -7.624217263187257 7.699737877395203 8.889302576263075
H -7.5330359724202935 7.769402557309191 9.851487673573647
H -6.7561010097993215 7.9671934691262996 8.551954652962126
O 2.7965139790062183 -9.778212397794462 -0.9802426188371578
H 2.699455677284133 -10.653400745927861 -0.5757770476715058
H 2.6267417074430046 -9.935126205556877 -1.9212619475662578
C -0.8708394086102638 6.052555437161106 -10.433743422586629
O -1.1821824489487363 5.851696826463993 -9.295525698668387
O -0.5594963682717911 6.25341404785822 -11.571961146504869