146

C -5.3564454929577465 1.0091607042253532 -0.0734429577464788
C -4.079135492957747 0.16955070422535368 -0.19788295774647868
C -4.333545492957747 -1.2789292957746463 0.3017270422535212
C -3.1403854929577464 -2.1745492957746464 0.7330270422535212
C -2.905235492957746 0.902300704225353 0.41966704225352136
C -2.7423854929577463 1.056130704225354 1.8024770422535212
C -1.8861754929577463 1.3499307042253532 -0.4326129577464788
C -1.5304554929577463 1.5279207042253526 2.3254170422535214
H -3.5237954929577464 0.7301007042253529 2.484817042253521
C -0.6776454929577462 1.8010507042253527 0.08546704225352131
H -1.9759254929577463 1.2426607042253535 -1.5115229577464788
C -0.4680254929577463 1.8513207042253539 1.4698070422535212
H -1.3950654929577464 1.5446707042253527 3.404047042253521
H 0.1461845070422536 1.9972507042253538 -0.6030529577464789
C -1.8679654929577463 -2.0866092957746467 -0.08765295774647863
C -0.6628654929577462 -1.814079295774647 0.5787970422535212
C -1.8438954929577462 -2.213429295774647 -1.4808029577464787
C 0.5129345070422537 -1.5763292957746469 -0.13022295774647863
H -0.6401854929577462 -1.7032692957746463 1.6609470422535213
C -0.6547954929577462 -1.9962392957746466 -2.1933129577464787
H -2.7578654929577464 -2.4351492957746466 -2.026182957746479
C 0.5308845070422537 -1.645769295774647 -1.5261029577464789
H 1.4044045070422537 -1.2610992957746463 0.41551704225352126
H -0.6795654929577464 -2.0467992957746466 -3.2793129577464786
C 1.7843245070422535 -1.2521692957746469 -2.2771629577464787
H 1.4981245070422535 -0.9384492957746469 -3.290282957746479
H 2.241984507042254 -0.38631929577464685 -1.8135029577464787
C 0.9385645070422537 2.0647807042253534 1.9815670422535212
H 1.0508945070422537 1.5807407042253532 2.9609770422535213
H 1.6053245070422537 1.5496207042253536 1.3096170422535214
C 3.9676945070422533 -1.6881692957746468 -3.314052957746479
H 4.795084507042254 -2.398849295774647 -3.4044129577464783
H 3.548404507042253 -1.4816192957746468 -4.303802957746479
H 4.307714507042253 -0.7637192957746466 -2.851282957746479
C 2.344694507042253 -3.565079295774647 -3.101282957746479
H 1.6334345070422536 -4.047909295774646 -2.4251929577464786
H 1.8561845070422536 -3.293109295774647 -4.041792957746479
H 3.1808045070422537 -4.243519295774647 -3.298122957746479
C 3.5156645070422536 -2.648489295774647 -1.1110629577464786
H 3.9311845070422535 -1.748249295774647 -0.6771029577464787
H 2.767184507042254 -3.1044092957746465 -0.45972295774647876
H 4.319224507042254 -3.371819295774647 -1.2863129577464787
C 2.963994507042253 3.381090704225353 2.401027042253521
H 3.3337945070422537 4.369820704225353 2.6912870422535216
H 3.120994507042253 2.671350704225353 3.2183370422535216
H 3.4665445070422534 3.0664207042253535 1.4881370422535212
C 1.2973745070422538 4.282440704225354 0.8488370422535213
H 1.7592145070422538 3.7367207042253527 0.02653704225352116
H 0.23311450704225378 4.4484607042253534 0.6605570422535213
H 1.7921845070422535 5.251370704225354 0.9736770422535213
C 0.7724845070422537 4.194670704225353 3.2772470422535216
H -0.2956954929577462 4.278220704225354 3.057857042253521
H 0.9298945070422537 3.612620704225354 4.190337042253521
H 1.2046345070422537 5.193640704225353 3.3918370422535213
N 2.876084507042253 -2.324759295774647 -2.4576629577464786
N 1.4527845070422536 3.504690704225353 2.1388470422535213
C -3.593905492957746 -3.637819295774647 0.8297870422535213
H -2.8952554929577463 -1.8680692957746468 1.7595270422535212
H -5.022615492957747 -1.2402792957746467 1.1579970422535213
H -4.898275492957747 -1.7933092957746464 -0.48931295774647876
H -3.883675492957746 0.07871070422535364 -1.2758929577464788
H -3.8751654929577466 -4.038529295774646 -0.1505529577464788
H -4.4603554929577465 -3.7321892957746465 1.4932570422535212
H -2.7953554929577464 -4.271929295774647 1.2313670422535212
H -5.648775492957746 1.147700704225353 0.9733970422535213
H -6.189795492957747 0.5254307042253537 -0.5943629577464788
H -5.2178854929577465 2.002970704225354 -0.5139729577464787
C 3.6710445070422537 1.0263707042253536 -0.27764295774647874
O 2.7356545070422538 1.6631507042253526 -0.7327029577464788
O 3.650814507042253 0.3883007042253537 0.7790570422535212
O 4.756604507042254 0.8696707042253538 -0.8334829577464786
O -0.529884565329013 8.874534345165381 -1.696054405406331
H -0.8446591299258845 7.958954745249197 -1.736033482436357
H -0.6168921110242327 9.111309721898223 -0.7604641894115749
O -4.299195860248955 8.001294076127028 -0.4261691475265949
H -4.340164723022679 7.605603036444222 -1.3097513510016143
H -5.080717846613472 8.572978589526066 -0.3892618817302299
O 8.339510170866212 -1.6055262905985754 2.426620935201669
H 7.398277162663654 -1.4552300860532739 2.6011455239255556
H 8.620383404446104 -2.1908794948370747 3.1459496481320635
O 5.109612696044283 4.302936183567146 -1.958996893062028
H 4.301572310038098 3.9220058637911883 -2.3344035831440832
H 5.630674120430945 3.530581587098462 -1.6926788245239792
O -0.38610690761934563 0.8275005283409629 -3.925750504242909
H -0.2586727413948705 1.1442511244646774 -4.832611546538776
H 0.13449185769967276 1.4426276184205347 -3.3876450007414562
O -7.617368492056059 3.01223514568015 6.913431265421188
H -6.710840690091368 2.8768288698891875 7.227819308516803
H -7.529134986808355 3.695265577072868 6.231781632073396
O 6.923817388171403 -10.062500128461066 0.41141814856244024
H 6.978030154248982 -9.489583123487376 1.1910298713489804
H 6.048452856967745 -10.471982801306407 0.48229002203868876
O -1.0016069170681514 -9.462123989899693 5.834763767363952
H -1.9533277555865056 -9.540768357854567 5.670416982123411
H -0.5988132974050507 -9.656081834639696 4.975054747565677
O 12.601012599141448 6.103246191078821 2.337514771869337
H 12.898278064187092 6.985624759126861 2.6058590709343434
H 12.800896655389915 6.067010023540429 1.3900469631709162
O -0.995375973919484 4.789535216392869 -4.990740532960055
H -0.10425370279652696 5.025404945992995 -4.692020052465283
H -1.5007590763662177 4.696851029215905 -4.1691813412345535
O 0.23840738894049296 1.9288777832788004 11.243489836154108
H 0.18064447293316332 2.507074714279381 12.018937520666636
H 0.9800408177473698 1.3390395059045037 11.446054907477563
O 2.4039617070306734 7.478518448405479 -3.223960732679899
H 2.3923583696958977 7.4558713684039 -2.255291630648612
H 1.8799983139574654 6.705467426557112 -3.482449464810343
O -3.986807221275315 5.1319530072458805 4.971403619066791
H -4.613702301914072 5.635506848467245 5.512147036744839
H -3.1195160256661554 5.463168483023899 5.249008076747094
O 0.029564208042974993 -8.762724684786887 -6.091819401422549
H 0.0447564672550147 -9.16152583279503 -6.974822343947329
H 0.5612683808957213 -9.367395687693655 -5.5527223831459676
O 5.234738304774111 6.93464832033699 -7.001767966521237
H 5.782283680786424 7.539276840775427 -6.478713695551233
H 5.231144535626775 6.11528676239734 -6.484471468858606
O 8.264978864804494 11.488000867321468 -2.7059496749325445
H 8.374560844858195 12.450161461889827 -2.6712201945539022
H 9.154322053536786 11.144718186662086 -2.5322037739311503
O 7.8370490450372365 -5.9542740752675325 2.0407933488785086
H 8.562198209661167 -5.474516248315586 1.613056895646427
H 7.915212283581192 -5.71165823919427 2.9756676765433516
O 12.247253173217151 4.217738135976308 -2.6236550231392273
H 12.591228493724543 5.085490250363293 -2.3635500371071365
H 11.35869307863408 4.1929640311606855 -2.2378971374841092
O -3.5854084721016637 -6.841397999825066 0.3799781045790715
H -3.6521703174984044 -6.898988926496996 -0.5850055730364059
H -3.6388084450303637 -7.763257247527819 0.6737227464299935
O -3.5365524744880297 5.615289346913473 9.836058463801328
H -2.983646656912173 5.17524204503505 10.49909759228493
H -4.437925243503752 5.3431446422310165 10.065026442545573
O 5.404730765994531 3.924049676094611 -9.116441761602813
H 5.3033406909142595 3.8492099753434834 -10.077215631338401
H 6.325854632909877 3.6685346893579416 -8.95768138351093
O 6.7478055196730296 -5.394827858850837 -4.74650742908615
H 6.197991078878694 -5.622027049875228 -3.981620532092956
H 6.119192125996148 -5.026895748429595 -5.385595144279459
O 0.879604715659924 9.084995987500943 2.2475138044035234
H 1.2940119649766058 8.655141531486866 1.4843237001315774
H 0.6189896733930658 8.347006517790017 2.818839706704502
O 11.241660261792273 -1.3772441638108068 0.06835413367587995
H 11.465213197179018 -1.047208817683761 0.9515687804559088
H 11.708880159118493 -0.7762989730692991 -0.5312560643420707
C -1.448316122873119 1.413114392336006 -7.247075811804382
O -0.41618741858662345 1.8128868788284294 -7.702828545346973
O -2.480444827159615 1.0133419058435833 -6.791323078261789