146

C -5.3564454929577465 1.0091607042253532 -0.0734429577464788
C -4.079135492957747 0.16955070422535368 -0.19788295774647868
C -4.333545492957747 -1.2789292957746463 0.3017270422535212
C -3.1403854929577464 -2.1745492957746464 0.7330270422535212
C -2.905235492957746 0.902300704225353 0.41966704225352136
C -2.7423854929577463 1.056130704225354 1.8024770422535212
C -1.8861754929577463 1.3499307042253532 -0.4326129577464788
C -1.5304554929577463 1.5279207042253526 2.3254170422535214
H -3.5237954929577464 0.7301007042253529 2.484817042253521
C -0.6776454929577462 1.8010507042253527 0.08546704225352131
H -1.9759254929577463 1.2426607042253535 -1.5115229577464788
C -0.4680254929577463 1.8513207042253539 1.4698070422535212
H -1.3950654929577464 1.5446707042253527 3.404047042253521
H 0.1461845070422536 1.9972507042253538 -0.6030529577464789
C -1.8679654929577463 -2.0866092957746467 -0.08765295774647863
C -0.6628654929577462 -1.814079295774647 0.5787970422535212
C -1.8438954929577462 -2.213429295774647 -1.4808029577464787
C 0.5129345070422537 -1.5763292957746469 -0.13022295774647863
H -0.6401854929577462 -1.7032692957746463 1.6609470422535213
C -0.6547954929577462 -1.9962392957746466 -2.1933129577464787
H -2.7578654929577464 -2.4351492957746466 -2.026182957746479
C 0.5308845070422537 -1.645769295774647 -1.5261029577464789
H 1.4044045070422537 -1.2610992957746463 0.41551704225352126
H -0.6795654929577464 -2.0467992957746466 -3.2793129577464786
C 1.7843245070422535 -1.2521692957746469 -2.2771629577464787
H 1.4981245070422535 -0.9384492957746469 -3.290282957746479
H 2.241984507042254 -0.38631929577464685 -1.8135029577464787
C 0.9385645070422537 2.0647807042253534 1.9815670422535212
H 1.0508945070422537 1.5807407042253532 2.9609770422535213
H 1.6053245070422537 1.5496207042253536 1.3096170422535214
C 3.9676945070422533 -1.6881692957746468 -3.314052957746479
H 4.795084507042254 -2.398849295774647 -3.4044129577464783
H 3.548404507042253 -1.4816192957746468 -4.303802957746479
H 4.307714507042253 -0.7637192957746466 -2.851282957746479
C 2.344694507042253 -3.565079295774647 -3.101282957746479
H 1.6334345070422536 -4.047909295774646 -2.4251929577464786
H 1.8561845070422536 -3.293109295774647 -4.041792957746479
H 3.1808045070422537 -4.243519295774647 -3.298122957746479
C 3.5156645070422536 -2.648489295774647 -1.1110629577464786
H 3.9311845070422535 -1.748249295774647 -0.6771029577464787
H 2.767184507042254 -3.1044092957746465 -0.45972295774647876
H 4.319224507042254 -3.371819295774647 -1.2863129577464787
C 2.963994507042253 3.381090704225353 2.401027042253521
H 3.3337945070422537 4.369820704225353 2.6912870422535216
H 3.120994507042253 2.671350704225353 3.2183370422535216
H 3.4665445070422534 3.0664207042253535 1.4881370422535212
C 1.2973745070422538 4.282440704225354 0.8488370422535213
H 1.7592145070422538 3.7367207042253527 0.02653704225352116
H 0.23311450704225378 4.4484607042253534 0.6605570422535213
H 1.7921845070422535 5.251370704225354 0.9736770422535213
C 0.7724845070422537 4.194670704225353 3.2772470422535216
H -0.2956954929577462 4.278220704225354 3.057857042253521
H 0.9298945070422537 3.612620704225354 4.190337042253521
H 1.2046345070422537 5.193640704225353 3.3918370422535213
N 2.876084507042253 -2.324759295774647 -2.4576629577464786
N 1.4527845070422536 3.504690704225353 2.1388470422535213
C -3.593905492957746 -3.637819295774647 0.8297870422535213
H -2.8952554929577463 -1.8680692957746468 1.7595270422535212
H -5.022615492957747 -1.2402792957746467 1.1579970422535213
H -4.898275492957747 -1.7933092957746464 -0.48931295774647876
H -3.883675492957746 0.07871070422535364 -1.2758929577464788
H -3.8751654929577466 -4.038529295774646 -0.1505529577464788
H -4.4603554929577465 -3.7321892957746465 1.4932570422535212
H -2.7953554929577464 -4.271929295774647 1.2313670422535212
H -5.648775492957746 1.147700704225353 0.9733970422535213
H -6.189795492957747 0.5254307042253537 -0.5943629577464788
H -5.2178854929577465 2.002970704225354 -0.5139729577464787
C 3.6710445070422537 1.0263707042253536 -0.27764295774647874
O 2.7356545070422538 1.6631507042253526 -0.7327029577464788
O 3.650814507042253 0.3883007042253537 0.7790570422535212
O 4.756604507042254 0.8696707042253538 -0.8334829577464786
O -3.7774699466545734 -10.20601634863143 -2.0408535749007903
H -3.2579804727704884 -10.601063954604466 -2.75711849267815
H -3.111595810155692 -9.931941301373904 -1.3924274440943178
O 4.895758292079864 3.3545344269799218 10.677715353555909
H 5.6757781081572904 3.928445120894583 10.643613171266034
H 4.309354761013639 3.7158452272558495 9.99613824958525
O 10.518277745043903 -8.502505762864244 5.475017120688078
H 10.770495289125215 -8.507229653452564 6.410608565826023
H 11.211949843316603 -7.977480699010688 5.048250619304103
O 5.226527597835322 -5.935497469906719 12.581804594780788
H 4.61626473291976 -6.604565560576454 12.926615387321576
H 4.730907222728948 -5.514762803588723 11.863261117573112
O 6.696852659277162 1.4810230171440915 4.213584167994788
H 6.70814529489289 1.8162544132292704 3.304485854081692
H 5.768711499843943 1.559857773761522 4.480606664453474
O -0.8647848916806451 -12.54205031966619 3.175198554520801
H -1.053561776477674 -13.292337409776774 2.591760531180084
H 0.10292335753057902 -12.493958548620476 3.188977896530996
O 8.68913882703154 5.705796106851713 -0.5451831467243251
H 7.859752385602373 5.829633482699208 -0.05964242544888787
H 9.31715335535762 5.417315169140178 0.13403584968879478
O 4.938865402425693 -0.32182762210980975 13.094954134906452
H 4.830025610032455 -0.10025951372454567 14.031986060637038
H 5.593463940053265 0.3182816920567517 12.777585634968196
O -0.842252065456369 -0.98411449050904 -5.940189505603752
H -1.09494345406166 -1.2983926271434327 -6.8212931725228865
H -1.5416595676386247 -0.3555132728973729 -5.706412690225692
O -2.8042668389040046 10.444533502295528 2.1906923815140944
H -3.6370429838910616 10.711477574783355 1.773329096827827
H -2.794561474588485 10.933282491248246 3.027347732301501
O 12.094976412926474 -2.849370098556209 -2.2516122636576545
H 11.79426367656173 -2.0615421811881194 -2.728965780145685
H 12.080008511370105 -3.5490541648766123 -2.9218212710280005
O -2.0478375593584195 -6.557172725257537 3.582521473270016
H -1.3420067233220383 -7.1544550114868475 3.8723905098311384
H -1.5879467480525329 -5.725253363321972 3.394445527936397
O 7.001991773960944 -3.3115366061078237 -7.4596667027378825
H 7.038859220220537 -3.4359740518582744 -8.419939304867821
H 7.6396554037710445 -2.60168179702917 -7.2909859701531765
O -10.251913536662851 0.8734396626085384 7.621843552759698
H -10.20348426126141 0.6336726532225402 8.559464874719788
H -9.944416910411917 0.07855101293010047 7.1608014681766505
O -0.5449280913454608 -5.316486538660048 1.0396319099921567
H -0.691849453730977 -4.491798293166209 0.5525274366816784
H -0.9576274176917174 -5.993816954702957 0.48297697393527983
O -5.588577256286562 -4.294787057999754 -2.886161377844049
H -6.433819071092953 -4.173581665116561 -3.344247487804645
H -5.20533930803177 -3.405099424912521 -2.86278329304026
O 8.553665614404164 1.3511895911147147 5.061445055374851
H 8.509934968505222 1.3274337551781166 6.029169524306075
H 8.01152177173242 0.5974599024270435 4.784076069105834
O 5.609589752977836 -5.234065440673209 -0.09809210849827299
H 5.180396620373572 -5.536144912128027 -0.9126524836399312
H 5.920803642941142 -6.051251529709202 0.3194180768624716
O 7.429170777765106 -4.3506405450896795 -6.015285300177951
H 7.336610403634452 -4.932856753801124 -6.784326404641468
H 6.829172448318552 -4.733930099879978 -5.357977863623336
O -2.7397745872801407 0.8245421521574872 11.319161904284531
H -3.4872056710141064 0.5432696610150018 11.867978738660783
H -2.4147759892221785 1.6246880619946673 11.758598337151891
O 4.746706091355811 13.233023047052903 -4.176853622314374
H 4.574955849409029 14.14381539172873 -3.894140841968076
H 5.657296189913498 13.258268601342905 -4.507232614832498
O -1.688138500748306 7.0869995632195355 1.664497463027061
H -2.2392797447672868 7.759121959380563 1.236172620623575
H -0.914140829588693 7.58126569633178 1.9736746597893111
O -0.7562895374549325 5.925734822867209 -1.1486542241655306
H -1.2197628848593884 6.489318828323171 -0.5110549127324617
H -1.315127371057103 5.958548290633658 -1.9395938529413128
O 5.96498473095255 7.809990121643479 4.831429469855021
H 5.23138045457598 8.232434894647161 4.359907957785975
H 5.574986413468452 7.000336891294319 5.193817250063933
C 3.174902309817685 7.493915468666569 -6.166119164328611
O 3.2442805532153867 6.79124194249882 -7.132687750754857
O 3.1055240664199832 8.196588994834318 -5.199550577902366