146

C -5.3564454929577465 1.0091607042253532 -0.0734429577464788
C -4.079135492957747 0.16955070422535368 -0.19788295774647868
C -4.333545492957747 -1.2789292957746463 0.3017270422535212
C -3.1403854929577464 -2.1745492957746464 0.7330270422535212
C -2.905235492957746 0.902300704225353 0.41966704225352136
C -2.7423854929577463 1.056130704225354 1.8024770422535212
C -1.8861754929577463 1.3499307042253532 -0.4326129577464788
C -1.5304554929577463 1.5279207042253526 2.3254170422535214
H -3.5237954929577464 0.7301007042253529 2.484817042253521
C -0.6776454929577462 1.8010507042253527 0.08546704225352131
H -1.9759254929577463 1.2426607042253535 -1.5115229577464788
C -0.4680254929577463 1.8513207042253539 1.4698070422535212
H -1.3950654929577464 1.5446707042253527 3.404047042253521
H 0.1461845070422536 1.9972507042253538 -0.6030529577464789
C -1.8679654929577463 -2.0866092957746467 -0.08765295774647863
C -0.6628654929577462 -1.814079295774647 0.5787970422535212
C -1.8438954929577462 -2.213429295774647 -1.4808029577464787
C 0.5129345070422537 -1.5763292957746469 -0.13022295774647863
H -0.6401854929577462 -1.7032692957746463 1.6609470422535213
C -0.6547954929577462 -1.9962392957746466 -2.1933129577464787
H -2.7578654929577464 -2.4351492957746466 -2.026182957746479
C 0.5308845070422537 -1.645769295774647 -1.5261029577464789
H 1.4044045070422537 -1.2610992957746463 0.41551704225352126
H -0.6795654929577464 -2.0467992957746466 -3.2793129577464786
C 1.7843245070422535 -1.2521692957746469 -2.2771629577464787
H 1.4981245070422535 -0.9384492957746469 -3.290282957746479
H 2.241984507042254 -0.38631929577464685 -1.8135029577464787
C 0.9385645070422537 2.0647807042253534 1.9815670422535212
H 1.0508945070422537 1.5807407042253532 2.9609770422535213
H 1.6053245070422537 1.5496207042253536 1.3096170422535214
C 3.9676945070422533 -1.6881692957746468 -3.314052957746479
H 4.795084507042254 -2.398849295774647 -3.4044129577464783
H 3.548404507042253 -1.4816192957746468 -4.303802957746479
H 4.307714507042253 -0.7637192957746466 -2.851282957746479
C 2.344694507042253 -3.565079295774647 -3.101282957746479
H 1.6334345070422536 -4.047909295774646 -2.4251929577464786
H 1.8561845070422536 -3.293109295774647 -4.041792957746479
H 3.1808045070422537 -4.243519295774647 -3.298122957746479
C 3.5156645070422536 -2.648489295774647 -1.1110629577464786
H 3.9311845070422535 -1.748249295774647 -0.6771029577464787
H 2.767184507042254 -3.1044092957746465 -0.45972295774647876
H 4.319224507042254 -3.371819295774647 -1.2863129577464787
C 2.963994507042253 3.381090704225353 2.401027042253521
H 3.3337945070422537 4.369820704225353 2.6912870422535216
H 3.120994507042253 2.671350704225353 3.2183370422535216
H 3.4665445070422534 3.0664207042253535 1.4881370422535212
C 1.2973745070422538 4.282440704225354 0.8488370422535213
H 1.7592145070422538 3.7367207042253527 0.02653704225352116
H 0.23311450704225378 4.4484607042253534 0.6605570422535213
H 1.7921845070422535 5.251370704225354 0.9736770422535213
C 0.7724845070422537 4.194670704225353 3.2772470422535216
H -0.2956954929577462 4.278220704225354 3.057857042253521
H 0.9298945070422537 3.612620704225354 4.190337042253521
H 1.2046345070422537 5.193640704225353 3.3918370422535213
N 2.876084507042253 -2.324759295774647 -2.4576629577464786
N 1.4527845070422536 3.504690704225353 2.1388470422535213
C -3.593905492957746 -3.637819295774647 0.8297870422535213
H -2.8952554929577463 -1.8680692957746468 1.7595270422535212
H -5.022615492957747 -1.2402792957746467 1.1579970422535213
H -4.898275492957747 -1.7933092957746464 -0.48931295774647876
H -3.883675492957746 0.07871070422535364 -1.2758929577464788
H -3.8751654929577466 -4.038529295774646 -0.1505529577464788
H -4.4603554929577465 -3.7321892957746465 1.4932570422535212
H -2.7953554929577464 -4.271929295774647 1.2313670422535212
H -5.648775492957746 1.147700704225353 0.9733970422535213
H -6.189795492957747 0.5254307042253537 -0.5943629577464788
H -5.2178854929577465 2.002970704225354 -0.5139729577464787
C 3.6710445070422537 1.0263707042253536 -0.27764295774647874
O 2.7356545070422538 1.6631507042253526 -0.7327029577464788
O 3.650814507042253 0.3883007042253537 0.7790570422535212
O 4.756604507042254 0.8696707042253538 -0.8334829577464786
O -5.556799355824874 -6.125090711793707 -0.9752428426496635
H -6.170275084377419 -6.54078289391073 -1.5995944239752102
H -4.75895756506321 -5.9662077813982055 -1.5017090197618863
O 6.565549973800158 -0.33229579417947885 7.652719680397017
H 6.704427588001564 -0.103394399177267 8.584000796140145
H 7.29680717557327 -0.9342515036807617 7.448087881905766
O 8.526124135929502 -11.250774733836536 1.070577793226506
H 8.942906886935464 -11.839767411026408 0.4237802038829701
H 7.588104206303389 -11.491348321415508 1.0358660533737525
O 0.6555437746589878 2.873983500138429 10.41871248312431
H 0.7929747611788183 1.9155073219007799 10.381249213177103
H -0.30668675305796533 2.9747548245833233 10.36468012245799
O 2.17888616237469 1.7369388140269524 -3.3672478034357702
H 2.3580672868771955 1.857233226856351 -4.311912154284286
H 1.2985021590762327 2.1228691541836144 -3.2450032797026234
O -5.295338239602955 -1.6574710099716308 -3.0657102470955975
H -4.921590377673423 -2.2302617526633104 -3.75214353423268
H -5.962716098071498 -2.2127514926553187 -2.635323997458702
O 1.3758858919981227 4.268243307735538 6.072621352998162
H 1.6311608365247279 4.412109218350078 5.148984704006803
H 1.6729920169767871 5.07176040713624 6.525446005342582
O -2.8969364053152904 -8.993432304815155 -0.14075958242708936
H -3.5466077427410014 -8.308963440889766 -0.3607525017317326
H -2.0830694564081673 -8.690461792932517 -0.5706332879571943
O -8.040476447895752 -3.366084922295567 -6.948282004893769
H -8.105608685646292 -3.2587254448764464 -7.909114503883004
H -8.682949877445013 -2.731027098046863 -6.5977233129694195
O 1.256215102029787 9.15730536541158 6.7605851526754766
H 0.9419147803121808 8.981445638371492 5.860998569253072
H 2.0622807071573215 8.62471395379769 6.835194621280364
O -3.0782583570306548 2.0803891650690627 12.048750707287285
H -3.5677867712166584 2.38462961278709 12.827703233810483
H -2.6825268899547527 2.8890701756089285 11.690430217420776
O 7.363231302130837 -8.421755154729231 -6.637447649820814
H 7.907639594004025 -8.474584520199489 -5.837575143240091
H 7.905984451081165 -7.910922255621152 -7.256665473202327
O 9.667810383721232 -10.32814059930798 4.8279460615717
H 9.600059424461364 -11.294238398022866 4.79581807163115
H 8.747135047738947 -10.030562089697566 4.880537892039457
O 0.04063118263771415 9.393576197938053 9.235660743666955
H 0.6090467995048057 9.786340008018572 9.915077870984659
H -0.857846451907462 9.59948988246434 9.534490861036195
O -6.555020038857551 7.8808788954637 3.8800781111497704
H -6.690568427764636 7.951150147334706 2.9231789825446834
H -5.600389940435875 8.004761509928581 3.990967323072149
O 2.916972285190611 6.027369466501681 -4.181231467941726
H 3.4541552532752977 6.421333414019104 -4.884931847191458
H 2.6717927038832614 6.78127187677959 -3.6240240801702495
O -5.487298239236985 -0.6006695238112087 4.491060995543242
H -5.485414316783378 -1.5648241272087688 4.3942637410187295
H -6.400802785223477 -0.34709699558076157 4.290630554519851
O -2.2546939848982857 -3.4209762116078117 -7.683157077441839
H -2.326768127037888 -4.3871235172095995 -7.701379558426831
H -1.3579747503368638 -3.2593404341170333 -7.353414095556662
O 4.554254352637224 4.19637874766777 -8.979098124765395
H 4.562369151926837 4.410298397023875 -9.924158911462131
H 3.6176875380285374 4.045887934435416 -8.781216692573281
O -6.2206683739349184 2.611333712153849 4.3697115932669774
H -5.290877025723147 2.3833429891830784 4.519630357702263
H -6.313614642810448 3.4894569786238554 4.7687384899621295
O 5.000883629151117 3.48454137340399 -3.4084465287032093
H 4.720115600443872 3.558994393625739 -4.332888749037021
H 5.790502629188233 2.9242776588034554 -3.4480489172977644
O -5.364331416844077 6.829429044518722 -2.2010907497780083
H -5.220144680230671 7.714351489636051 -1.8335450954541606
H -4.4938654287533515 6.407550886913165 -2.1439092141867335
O 8.328404609217378 1.881453042848391 -6.9868835194627215
H 8.098265994159307 1.5012405381658618 -7.847953798848899
H 7.8325041043241885 1.3420569672187668 -6.35277271909575
O 0.8234003762479648 2.111472163639077 7.54100446918053
H 0.32575379486868433 2.850970628383326 7.16092913772318
H 1.4078234232608977 2.5315302418837033 8.189820974304705
C -6.613590683665584 9.588738211927506 -3.3502702865323277
O -6.004329561567323 10.336621472140571 -4.058994331201791
O -7.2228518057638444 8.840854951714439 -2.641546241862865