146

C -5.3564454929577465 1.0091607042253532 -0.0734429577464788
C -4.079135492957747 0.16955070422535368 -0.19788295774647868
C -4.333545492957747 -1.2789292957746463 0.3017270422535212
C -3.1403854929577464 -2.1745492957746464 0.7330270422535212
C -2.905235492957746 0.902300704225353 0.41966704225352136
C -2.7423854929577463 1.056130704225354 1.8024770422535212
C -1.8861754929577463 1.3499307042253532 -0.4326129577464788
C -1.5304554929577463 1.5279207042253526 2.3254170422535214
H -3.5237954929577464 0.7301007042253529 2.484817042253521
C -0.6776454929577462 1.8010507042253527 0.08546704225352131
H -1.9759254929577463 1.2426607042253535 -1.5115229577464788
C -0.4680254929577463 1.8513207042253539 1.4698070422535212
H -1.3950654929577464 1.5446707042253527 3.404047042253521
H 0.1461845070422536 1.9972507042253538 -0.6030529577464789
C -1.8679654929577463 -2.0866092957746467 -0.08765295774647863
C -0.6628654929577462 -1.814079295774647 0.5787970422535212
C -1.8438954929577462 -2.213429295774647 -1.4808029577464787
C 0.5129345070422537 -1.5763292957746469 -0.13022295774647863
H -0.6401854929577462 -1.7032692957746463 1.6609470422535213
C -0.6547954929577462 -1.9962392957746466 -2.1933129577464787
H -2.7578654929577464 -2.4351492957746466 -2.026182957746479
C 0.5308845070422537 -1.645769295774647 -1.5261029577464789
H 1.4044045070422537 -1.2610992957746463 0.41551704225352126
H -0.6795654929577464 -2.0467992957746466 -3.2793129577464786
C 1.7843245070422535 -1.2521692957746469 -2.2771629577464787
H 1.4981245070422535 -0.9384492957746469 -3.290282957746479
H 2.241984507042254 -0.38631929577464685 -1.8135029577464787
C 0.9385645070422537 2.0647807042253534 1.9815670422535212
H 1.0508945070422537 1.5807407042253532 2.9609770422535213
H 1.6053245070422537 1.5496207042253536 1.3096170422535214
C 3.9676945070422533 -1.6881692957746468 -3.314052957746479
H 4.795084507042254 -2.398849295774647 -3.4044129577464783
H 3.548404507042253 -1.4816192957746468 -4.303802957746479
H 4.307714507042253 -0.7637192957746466 -2.851282957746479
C 2.344694507042253 -3.565079295774647 -3.101282957746479
H 1.6334345070422536 -4.047909295774646 -2.4251929577464786
H 1.8561845070422536 -3.293109295774647 -4.041792957746479
H 3.1808045070422537 -4.243519295774647 -3.298122957746479
C 3.5156645070422536 -2.648489295774647 -1.1110629577464786
H 3.9311845070422535 -1.748249295774647 -0.6771029577464787
H 2.767184507042254 -3.1044092957746465 -0.45972295774647876
H 4.319224507042254 -3.371819295774647 -1.2863129577464787
C 2.963994507042253 3.381090704225353 2.401027042253521
H 3.3337945070422537 4.369820704225353 2.6912870422535216
H 3.120994507042253 2.671350704225353 3.2183370422535216
H 3.4665445070422534 3.0664207042253535 1.4881370422535212
C 1.2973745070422538 4.282440704225354 0.8488370422535213
H 1.7592145070422538 3.7367207042253527 0.02653704225352116
H 0.23311450704225378 4.4484607042253534 0.6605570422535213
H 1.7921845070422535 5.251370704225354 0.9736770422535213
C 0.7724845070422537 4.194670704225353 3.2772470422535216
H -0.2956954929577462 4.278220704225354 3.057857042253521
H 0.9298945070422537 3.612620704225354 4.190337042253521
H 1.2046345070422537 5.193640704225353 3.3918370422535213
N 2.876084507042253 -2.324759295774647 -2.4576629577464786
N 1.4527845070422536 3.504690704225353 2.1388470422535213
C -3.593905492957746 -3.637819295774647 0.8297870422535213
H -2.8952554929577463 -1.8680692957746468 1.7595270422535212
H -5.022615492957747 -1.2402792957746467 1.1579970422535213
H -4.898275492957747 -1.7933092957746464 -0.48931295774647876
H -3.883675492957746 0.07871070422535364 -1.2758929577464788
H -3.8751654929577466 -4.038529295774646 -0.1505529577464788
H -4.4603554929577465 -3.7321892957746465 1.4932570422535212
H -2.7953554929577464 -4.271929295774647 1.2313670422535212
H -5.648775492957746 1.147700704225353 0.9733970422535213
H -6.189795492957747 0.5254307042253537 -0.5943629577464788
H -5.2178854929577465 2.002970704225354 -0.5139729577464787
C 3.6710445070422537 1.0263707042253536 -0.27764295774647874
O 2.7356545070422538 1.6631507042253526 -0.7327029577464788
O 3.650814507042253 0.3883007042253537 0.7790570422535212
O 4.756604507042254 0.8696707042253538 -0.8334829577464786
O 1.1703350463674154 7.833272318841702 7.443740567072581
H 1.477197532514826 7.789380708967616 8.361823514348094
H 1.8956182517639844 8.273157802660794 6.975310233517074
O 9.167634325689669 -0.29926169003902453 -4.497303494806151
H 8.28313148497095 -0.6870002058433882 -4.576555781980384
H 9.357701978902407 0.03397406156046867 -5.387129413375689
O 2.20730855616863 11.598463801333601 10.094319460378596
H 1.6933399133345393 11.712660672518423 10.907807423224318
H 2.6695437144530088 10.757010186057208 10.22568313908814
O 7.1426394579787855 -5.858173906873953 -5.805529137108981
H 7.068274958022073 -6.065802367191604 -6.749100915254294
H 7.874102160679552 -6.415555940397233 -5.500161280969627
O -1.938938524755244 -12.974702498961268 -0.21391331565881755
H -2.0094331924151314 -12.858017320664898 0.745452322613404
H -1.3975185818093303 -12.224402546547404 -0.5017958804108331
O 4.248911720136405 0.8131275580562702 -8.649811263577725
H 4.297031988681526 0.17288544870126632 -7.924041439140387
H 5.153799713676727 0.8440349883532132 -8.995042192376129
O 2.0706481570621076 1.9407184307550782 8.921198443616435
H 1.2963658169924552 1.8461714162167777 8.346294036955502
H 2.338186082051414 1.0278046584681881 9.105518402821442
O -10.216596300920125 5.143952495812726 1.7485232637688044
H -10.131557266506213 6.016361909826987 2.1616062262173212
H -9.372103988998898 5.018700072691007 1.290149497167706
O -2.766617304445526 12.621365517474588 2.764012453126953
H -2.8952522690294025 11.823206144638645 3.2982053193659544
H -2.0184059467947373 12.400305566651042 2.1893175717122535
O -1.1401416163683713 11.402408407717154 -5.315831814041894
H -0.5114396274533508 11.242654794817511 -4.595984643317573
H -0.8799932516114621 12.267624636343818 -5.6660969283986535
O -7.562717981621347 -8.8054273448445 -0.04913582204546141
H -7.680199860023673 -8.641665556577749 0.8986761012023616
H -6.855941017023198 -8.194482348664344 -0.30637982733199265
O 0.22984861931314082 11.039341998770984 -3.163201292106549
H -0.1532895337133655 10.890978033431642 -2.2856133213684444
H 0.6583078905907036 11.905228265090209 -3.0881974858294368
O -7.056466413810901 4.65893818816579 9.116472722091935
H -6.98028878408844 5.008246053735937 10.01711046318471
H -6.17261077433694 4.786628133127126 8.740365781414356
O -4.340143697021091 7.83359624746208 -1.9052810840287
H -4.350294426569214 8.19940088749808 -2.8025275857871494
H -4.795599386640173 6.982936479647418 -1.994163132357425
O -7.6797861866777515 -2.7726987766523807 -0.5235148016657307
H -6.877521362807652 -2.892767463139834 0.006505971328928162
H -7.583457375990529 -1.8832444428993114 -0.8957428133728946
O -8.248554574568425 9.095168022079267 3.982724306557996
H -8.145296370707472 8.819759135400595 4.906009227573078
H -7.835081115977914 8.379255402505821 3.477283148284663
O 2.4865162153320037 -3.8299914133434783 -9.326318297834682
H 1.5854807367831567 -4.17810021821847 -9.403277269142498
H 2.3832905774482334 -2.878195216672381 -9.475952558570395
O 5.543754294191768 6.839915492752528 8.273860364462557
H 5.39562343888987 7.786009913972876 8.125772712231647
H 5.7636366877809895 6.496997644531868 7.394644221150124
O -6.4055222206022755 -2.313803236055476 8.795623546794529
H -6.6757910043479605 -2.1926079384902195 9.718246894255833
H -5.56049452213202 -2.783765417915136 8.859071799250906
O -7.014028490811848 -2.2027676348748466 -8.598267528398475
H -7.071352178979522 -2.018352666910941 -7.648703169723548
H -6.09248509243696 -2.0019273424887514 -8.820490133382599
O 4.672830951796587 -2.9623488285039072 0.45574738653015767
H 5.107849223705165 -2.7744837208014688 -0.38949409453523953
H 5.388707318143528 -2.901741401606704 1.1059855830480174
O -3.942462653971415 -3.82976597814519 11.067762476431936
H -4.1487322883151485 -4.776339941367816 11.088205739300577
H -4.699204344959712 -3.435170085893321 10.60885285653045
O 8.616263078357193 10.397658438830298 3.3356598463027196
H 8.437317561286893 10.451149088983513 2.3848262072434836
H 7.774189087729175 10.64470090732513 3.7465653796893905
O 4.227084257216977 1.2419605435373504 -13.439414822819677
H 3.914923515521747 1.0442356201879772 -14.335198213450898
H 3.6703379273484815 1.9825630268500063 -13.155683558787867
C -2.5316904788468864 -2.3447092296829344 -4.0603790271821065
O -2.7159901109640647 -3.2529991000785907 -4.817915438345369
O -2.347390846729708 -1.436419359287278 -3.302842616018845