146

C -5.3564454929577465 1.0091607042253532 -0.0734429577464788
C -4.079135492957747 0.16955070422535368 -0.19788295774647868
C -4.333545492957747 -1.2789292957746463 0.3017270422535212
C -3.1403854929577464 -2.1745492957746464 0.7330270422535212
C -2.905235492957746 0.902300704225353 0.41966704225352136
C -2.7423854929577463 1.056130704225354 1.8024770422535212
C -1.8861754929577463 1.3499307042253532 -0.4326129577464788
C -1.5304554929577463 1.5279207042253526 2.3254170422535214
H -3.5237954929577464 0.7301007042253529 2.484817042253521
C -0.6776454929577462 1.8010507042253527 0.08546704225352131
H -1.9759254929577463 1.2426607042253535 -1.5115229577464788
C -0.4680254929577463 1.8513207042253539 1.4698070422535212
H -1.3950654929577464 1.5446707042253527 3.404047042253521
H 0.1461845070422536 1.9972507042253538 -0.6030529577464789
C -1.8679654929577463 -2.0866092957746467 -0.08765295774647863
C -0.6628654929577462 -1.814079295774647 0.5787970422535212
C -1.8438954929577462 -2.213429295774647 -1.4808029577464787
C 0.5129345070422537 -1.5763292957746469 -0.13022295774647863
H -0.6401854929577462 -1.7032692957746463 1.6609470422535213
C -0.6547954929577462 -1.9962392957746466 -2.1933129577464787
H -2.7578654929577464 -2.4351492957746466 -2.026182957746479
C 0.5308845070422537 -1.645769295774647 -1.5261029577464789
H 1.4044045070422537 -1.2610992957746463 0.41551704225352126
H -0.6795654929577464 -2.0467992957746466 -3.2793129577464786
C 1.7843245070422535 -1.2521692957746469 -2.2771629577464787
H 1.4981245070422535 -0.9384492957746469 -3.290282957746479
H 2.241984507042254 -0.38631929577464685 -1.8135029577464787
C 0.9385645070422537 2.0647807042253534 1.9815670422535212
H 1.0508945070422537 1.5807407042253532 2.9609770422535213
H 1.6053245070422537 1.5496207042253536 1.3096170422535214
C 3.9676945070422533 -1.6881692957746468 -3.314052957746479
H 4.795084507042254 -2.398849295774647 -3.4044129577464783
H 3.548404507042253 -1.4816192957746468 -4.303802957746479
H 4.307714507042253 -0.7637192957746466 -2.851282957746479
C 2.344694507042253 -3.565079295774647 -3.101282957746479
H 1.6334345070422536 -4.047909295774646 -2.4251929577464786
H 1.8561845070422536 -3.293109295774647 -4.041792957746479
H 3.1808045070422537 -4.243519295774647 -3.298122957746479
C 3.5156645070422536 -2.648489295774647 -1.1110629577464786
H 3.9311845070422535 -1.748249295774647 -0.6771029577464787
H 2.767184507042254 -3.1044092957746465 -0.45972295774647876
H 4.319224507042254 -3.371819295774647 -1.2863129577464787
C 2.963994507042253 3.381090704225353 2.401027042253521
H 3.3337945070422537 4.369820704225353 2.6912870422535216
H 3.120994507042253 2.671350704225353 3.2183370422535216
H 3.4665445070422534 3.0664207042253535 1.4881370422535212
C 1.2973745070422538 4.282440704225354 0.8488370422535213
H 1.7592145070422538 3.7367207042253527 0.02653704225352116
H 0.23311450704225378 4.4484607042253534 0.6605570422535213
H 1.7921845070422535 5.251370704225354 0.9736770422535213
C 0.7724845070422537 4.194670704225353 3.2772470422535216
H -0.2956954929577462 4.278220704225354 3.057857042253521
H 0.9298945070422537 3.612620704225354 4.190337042253521
H 1.2046345070422537 5.193640704225353 3.3918370422535213
N 2.876084507042253 -2.324759295774647 -2.4576629577464786
N 1.4527845070422536 3.504690704225353 2.1388470422535213
C -3.593905492957746 -3.637819295774647 0.8297870422535213
H -2.8952554929577463 -1.8680692957746468 1.7595270422535212
H -5.022615492957747 -1.2402792957746467 1.1579970422535213
H -4.898275492957747 -1.7933092957746464 -0.48931295774647876
H -3.883675492957746 0.07871070422535364 -1.2758929577464788
H -3.8751654929577466 -4.038529295774646 -0.1505529577464788
H -4.4603554929577465 -3.7321892957746465 1.4932570422535212
H -2.7953554929577464 -4.271929295774647 1.2313670422535212
H -5.648775492957746 1.147700704225353 0.9733970422535213
H -6.189795492957747 0.5254307042253537 -0.5943629577464788
H -5.2178854929577465 2.002970704225354 -0.5139729577464787
C 3.6710445070422537 1.0263707042253536 -0.27764295774647874
O 2.7356545070422538 1.6631507042253526 -0.7327029577464788
O 3.650814507042253 0.3883007042253537 0.7790570422535212
O 4.756604507042254 0.8696707042253538 -0.8334829577464786
O 3.4571602293006185 -7.800236884989227 2.2026701469207985
H 2.704223507541788 -7.64912526082206 1.6117226645091811
H 4.183807461203614 -7.313942174839903 1.7849822256823464
O -3.7145540690937113 4.3048175661473 3.5028858861932104
H -3.9096657779862474 4.831875244016845 2.7135133618729137
H -3.8946475659030093 4.9094154495912115 4.238405890028687
O -4.946316396037014 -7.948161355079154 4.001808920296481
H -5.618022427839718 -7.979796048952823 4.699503416393007
H -4.740249191747125 -7.00505188578379 3.9178876444388835
O -4.2817051930236865 -2.616278397610426 3.6061321886137847
H -5.128737009002822 -2.4642794531874572 3.160710163436098
H -3.707437046118229 -1.9155509337365784 3.2623894634213855
O 3.0320125049566755 -9.659978258702916 -9.294592187617303
H 3.8835873044906917 -9.635103339104841 -9.756294425075158
H 3.242853013021755 -10.056257464917165 -8.435830861531258
O 4.281015738290646 2.2146453436883107 6.632845761309283
H 4.445057497372077 1.2597490708024464 6.648036752263003
H 3.3394710661457134 2.286955886683696 6.4155285737073795
O 6.497840897480222 -6.657242467320725 -3.4438225886348635
H 6.3434320011916245 -6.068801879204722 -4.198052609188695
H 6.605212656600859 -6.053167598388818 -2.693804720602216
O -5.960852754666137 -8.034929296919957 -1.582221921251839
H -6.014008601341571 -7.9034029406719375 -2.540784715478872
H -6.5257540679862105 -7.336687641073737 -1.2184815735443228
O 6.7109743172702325 6.264943895209857 2.400041036118148
H 6.766595543220329 6.295154292066967 1.4331072389812678
H 6.561141016211375 7.1877672874812975 2.6548133126131304
O -3.5091199602196848 -7.12928091600313 -10.669702867658753
H -4.389802367184368 -7.222200015290028 -11.063062621510879
H -3.2564137203023984 -8.037219752628904 -10.444428436012595
O -0.21132840230114747 -8.182031593561108 -1.3139484731059363
H -0.3611729652615998 -7.571816023251964 -2.051614333508515
H -1.0719577674102618 -8.229872187437254 -0.8712405357595867
O -8.689650518789755 5.4459377907705715 -1.7837054218232784
H -8.356274994732612 5.054831822283203 -0.9622042116761569
H -9.409233406136593 6.025563446639911 -1.4918210070361502
O -10.622882084233765 -1.8865943550097413 -1.3927489778215307
H -11.303381571674961 -2.3352274053934963 -1.9167873262232855
H -10.839235306544548 -0.9464600266855943 -1.4838570027273827
O -3.4300242346055008 -6.846510162997174 2.4869289666879806
H -3.9307018738878607 -7.650175228181851 2.6928700296753134
H -2.5080148774289057 -7.143911847173558 2.4666083410122788
O 1.1867996860820718 6.268537142206792 -8.63829401008352
H 1.864129051308189 6.249731077236177 -7.945590162957847
H 0.7649770435037913 5.398332924089156 -8.57687559852357
O -12.77397391195215 -0.25082358427527723 7.1978719477059006
H -13.336099427938878 -0.9187031338995415 7.618489551201458
H -12.72572818387478 -0.5345613113249819 6.272600530082427
O -0.835197252618642 5.861487050426133 -6.2239041612360975
H -1.5395648468327892 5.506406202285617 -6.786710735828816
H -1.2414655101995378 6.631326230945987 -5.798162827420947
O -2.0495855724966607 -10.556187488063149 -2.2222594068920207
H -1.9008680344942386 -10.475175509403755 -3.1763492926492223
H -3.010050684632665 -10.470245014678625 -2.1269567105076943
O -3.8279704495253637 0.8929346535278595 -5.49146117391877
H -3.6603051842611802 0.9298830059522121 -6.4451333057214235
H -3.3034048450323743 0.1357242209231304 -5.190753289689801
O -5.666331230734201 -5.577870050411225 -3.2709513403786246
H -5.907075865832903 -5.481746915657585 -4.2046374335257415
H -5.0214790156338776 -6.301142346517755 -3.2687717383519956
O 1.748884323652641 6.595030990024773 -3.8381405133375055
H 1.9090483745492939 6.574943898553723 -4.793604454287978
H 2.623783633224282 6.441593054243665 -3.4508809850179314
O 7.342838146410964 -2.5345769746918045 -6.92803035971606
H 7.361322433984318 -2.5879656056461746 -7.895385176780474
H 7.779398944506776 -3.3503799277267845 -6.640207227071457
O 6.365801049804807 0.36162793364959056 -2.6738310932844964
H 7.029816367937109 -0.22626829890533562 -2.283409482799904
H 6.280120867422344 0.045097392470813846 -3.5856585260523293
O 0.3559666918797524 -0.6950477012017104 7.437535682716293
H 0.5881278795131193 -0.6685061055193834 6.497129343118721
H -0.23133470933958145 0.06665393914898066 7.555220089129685
C -5.9249596564777836 1.5316446221560938 3.614184329173445
O -6.3098937480943 2.063325094009276 2.613204869713189
O -5.540025564861269 0.9999641503029113 4.6151637886337