146

C -5.3564454929577465 1.0091607042253532 -0.0734429577464788
C -4.079135492957747 0.16955070422535368 -0.19788295774647868
C -4.333545492957747 -1.2789292957746463 0.3017270422535212
C -3.1403854929577464 -2.1745492957746464 0.7330270422535212
C -2.905235492957746 0.902300704225353 0.41966704225352136
C -2.7423854929577463 1.056130704225354 1.8024770422535212
C -1.8861754929577463 1.3499307042253532 -0.4326129577464788
C -1.5304554929577463 1.5279207042253526 2.3254170422535214
H -3.5237954929577464 0.7301007042253529 2.484817042253521
C -0.6776454929577462 1.8010507042253527 0.08546704225352131
H -1.9759254929577463 1.2426607042253535 -1.5115229577464788
C -0.4680254929577463 1.8513207042253539 1.4698070422535212
H -1.3950654929577464 1.5446707042253527 3.404047042253521
H 0.1461845070422536 1.9972507042253538 -0.6030529577464789
C -1.8679654929577463 -2.0866092957746467 -0.08765295774647863
C -0.6628654929577462 -1.814079295774647 0.5787970422535212
C -1.8438954929577462 -2.213429295774647 -1.4808029577464787
C 0.5129345070422537 -1.5763292957746469 -0.13022295774647863
H -0.6401854929577462 -1.7032692957746463 1.6609470422535213
C -0.6547954929577462 -1.9962392957746466 -2.1933129577464787
H -2.7578654929577464 -2.4351492957746466 -2.026182957746479
C 0.5308845070422537 -1.645769295774647 -1.5261029577464789
H 1.4044045070422537 -1.2610992957746463 0.41551704225352126
H -0.6795654929577464 -2.0467992957746466 -3.2793129577464786
C 1.7843245070422535 -1.2521692957746469 -2.2771629577464787
H 1.4981245070422535 -0.9384492957746469 -3.290282957746479
H 2.241984507042254 -0.38631929577464685 -1.8135029577464787
C 0.9385645070422537 2.0647807042253534 1.9815670422535212
H 1.0508945070422537 1.5807407042253532 2.9609770422535213
H 1.6053245070422537 1.5496207042253536 1.3096170422535214
C 3.9676945070422533 -1.6881692957746468 -3.314052957746479
H 4.795084507042254 -2.398849295774647 -3.4044129577464783
H 3.548404507042253 -1.4816192957746468 -4.303802957746479
H 4.307714507042253 -0.7637192957746466 -2.851282957746479
C 2.344694507042253 -3.565079295774647 -3.101282957746479
H 1.6334345070422536 -4.047909295774646 -2.4251929577464786
H 1.8561845070422536 -3.293109295774647 -4.041792957746479
H 3.1808045070422537 -4.243519295774647 -3.298122957746479
C 3.5156645070422536 -2.648489295774647 -1.1110629577464786
H 3.9311845070422535 -1.748249295774647 -0.6771029577464787
H 2.767184507042254 -3.1044092957746465 -0.45972295774647876
H 4.319224507042254 -3.371819295774647 -1.2863129577464787
C 2.963994507042253 3.381090704225353 2.401027042253521
H 3.3337945070422537 4.369820704225353 2.6912870422535216
H 3.120994507042253 2.671350704225353 3.2183370422535216
H 3.4665445070422534 3.0664207042253535 1.4881370422535212
C 1.2973745070422538 4.282440704225354 0.8488370422535213
H 1.7592145070422538 3.7367207042253527 0.02653704225352116
H 0.23311450704225378 4.4484607042253534 0.6605570422535213
H 1.7921845070422535 5.251370704225354 0.9736770422535213
C 0.7724845070422537 4.194670704225353 3.2772470422535216
H -0.2956954929577462 4.278220704225354 3.057857042253521
H 0.9298945070422537 3.612620704225354 4.190337042253521
H 1.2046345070422537 5.193640704225353 3.3918370422535213
N 2.876084507042253 -2.324759295774647 -2.4576629577464786
N 1.4527845070422536 3.504690704225353 2.1388470422535213
C -3.593905492957746 -3.637819295774647 0.8297870422535213
H -2.8952554929577463 -1.8680692957746468 1.7595270422535212
H -5.022615492957747 -1.2402792957746467 1.1579970422535213
H -4.898275492957747 -1.7933092957746464 -0.48931295774647876
H -3.883675492957746 0.07871070422535364 -1.2758929577464788
H -3.8751654929577466 -4.038529295774646 -0.1505529577464788
H -4.4603554929577465 -3.7321892957746465 1.4932570422535212
H -2.7953554929577464 -4.271929295774647 1.2313670422535212
H -5.648775492957746 1.147700704225353 0.9733970422535213
H -6.189795492957747 0.5254307042253537 -0.5943629577464788
H -5.2178854929577465 2.002970704225354 -0.5139729577464787
C 3.6710445070422537 1.0263707042253536 -0.27764295774647874
O 2.7356545070422538 1.6631507042253526 -0.7327029577464788
O 3.650814507042253 0.3883007042253537 0.7790570422535212
O 4.756604507042254 0.8696707042253538 -0.8334829577464786
O -6.176050185748858 1.1963883964605755 -3.2585528704124163
H -6.4721458498093885 1.416274005474144 -4.154624872861598
H -6.988478397846803 1.2208396673571618 -2.730988201543397
O -5.2894241453536575 4.984587692971685 -11.25791815909028
H -6.21726595424252 5.241446584876581 -11.367920178286447
H -4.982998593578181 5.526498941183868 -10.515356697270313
O -11.649986842834263 -0.28107019921119214 1.5417532293903013
H -11.453068603740814 -0.41429185832556215 2.4811373646380446
H -12.073331711596273 -1.1097581292043008 1.2715359444572047
O -1.2707258054876984 -8.845249825481547 -6.248811467190729
H -1.5061776004443472 -9.129836497680067 -7.144657567343353
H -1.8220500022918036 -8.062512672346298 -6.099392179881392
O -7.858702297397771 8.24966948479032 1.6825318952247197
H -6.95473692615616 8.408537808089614 1.9932967908421109
H -8.025960885506592 7.323397703355303 1.9127645947290381
O 2.4706617440059686 -4.218606864893873 3.3129520705833913
H 3.4116464885279227 -4.247117770005037 3.0833824825132465
H 2.272067725096034 -3.271850782548862 3.3693016978752164
O -0.2796900779618432 1.6848774428919497 -6.480903636548703
H 0.49508979457022373 1.7650015570885522 -5.904480500004546
H -0.4481663443995778 2.592946361912023 -6.774141646119287
O 0.2619668907773424 8.253968765292324 1.959241955470584
H 0.29785269250778745 8.2762233864158 2.927324750469449
H 1.0446984982795129 8.754742159325817 1.6844344178278787
O -3.1969880800605863 1.0557050662003442 -4.443456016111353
H -2.440450532605871 0.6509890625008417 -4.893815042378964
H -3.9672656592991897 0.6685303999037855 -4.885870045048574
O 7.6245038782728995 -4.528539595819183 6.776221892293971
H 7.9496331746482385 -4.320631655400796 5.88738411977895
H 8.422094726834455 -4.514888456103158 7.326334997914364
O -2.872831425417466 -3.815456240316544 -7.665597273291706
H -3.1479305016416603 -4.347261295967747 -8.427483903929375
H -3.6352873894383024 -3.849887107324582 -7.06857351947103
O -5.445133033796572 6.086552527320711 7.849570356283184
H -5.726135614633547 6.895577086040345 7.396266738548379
H -4.610000693034667 6.3341428034589535 8.274087697360473
O 0.682941710015851 13.702698476283404 -5.69266078735536
H 0.31555901282887255 13.994050450922645 -6.540665113748473
H -0.0819869200668295 13.690713608956894 -5.097931859073745
O -1.2369798606693774 -6.626932528718636 12.36498709705509
H -1.1004754620773936 -6.171134711981474 13.209132970896025
H -0.587831640832384 -6.220080630085405 11.771657453803552
O 3.385654231804274 -7.6695540392589985 1.124215003531968
H 3.4426851401728884 -7.685246979658798 0.15701876490597932
H 4.267517643046961 -7.946332660956727 1.4152003344036763
O -3.852531425496753 6.405637458438593 -15.403458341498638
H -3.650983188986656 5.971232108321052 -16.245858280392824
H -4.55225118542957 5.856782754779332 -15.018604192332138
O 11.040116848696417 5.5529009898112065 -4.323096000461991
H 11.850968647809164 5.544044824008618 -3.792616702936726
H 10.988052768846048 4.655945938159063 -4.686032511721242
O -4.643705661063702 2.4554194164806726 -7.662253710367709
H -4.480585971007192 2.501592882853843 -6.708195360674696
H -3.7688804605555517 2.591438610864711 -8.056133884551421
O 5.624986248963058 -7.931834532670035 6.714886471914788
H 5.668718375167156 -7.132354064604398 7.260675661272018
H 5.737051313424782 -7.603890892496647 5.809979662073566
O 3.4385315500618647 -2.7642342225518206 6.19231257500363
H 3.176913143720567 -2.737834038736298 7.124957307288087
H 3.0856965351355026 -3.6087370594683543 5.874060544402349
O -1.7070129894023007 6.655453366068846 -0.09507360887051064
H -1.662585559917118 6.663134785369224 0.8728801897205544
H -0.7816060640586242 6.730572688476469 -0.37245611413531954
O -0.2785078351999093 6.029207304459867 12.653357280699474
H 0.32627394495319617 6.2912438253911835 13.363669336765717
H -0.15285817281128672 5.07115380951438 12.58050395226238
O 1.7499285940258131 6.680070661256007 -9.954551341787447
H 2.40352392525205 6.65579890134908 -10.669527832009528
H 1.2806688682529757 7.516203306804709 -10.094692174935137
O 10.247495393202097 5.068368897808158 -0.9944103470445728
H 10.483084053209463 4.8722832206602975 -1.9136577279999933
H 9.31716368250108 4.805136432647913 -0.9299625259039148
C 7.252593217710878 -7.981112333355224 3.3693313042210553
O 7.062924462451514 -8.734194512491399 2.45844643111915
O 7.4422619729702415 -7.228030154219048 4.28021617732296