146

C -5.3564454929577465 1.0091607042253532 -0.0734429577464788
C -4.079135492957747 0.16955070422535368 -0.19788295774647868
C -4.333545492957747 -1.2789292957746463 0.3017270422535212
C -3.1403854929577464 -2.1745492957746464 0.7330270422535212
C -2.905235492957746 0.902300704225353 0.41966704225352136
C -2.7423854929577463 1.056130704225354 1.8024770422535212
C -1.8861754929577463 1.3499307042253532 -0.4326129577464788
C -1.5304554929577463 1.5279207042253526 2.3254170422535214
H -3.5237954929577464 0.7301007042253529 2.484817042253521
C -0.6776454929577462 1.8010507042253527 0.08546704225352131
H -1.9759254929577463 1.2426607042253535 -1.5115229577464788
C -0.4680254929577463 1.8513207042253539 1.4698070422535212
H -1.3950654929577464 1.5446707042253527 3.404047042253521
H 0.1461845070422536 1.9972507042253538 -0.6030529577464789
C -1.8679654929577463 -2.0866092957746467 -0.08765295774647863
C -0.6628654929577462 -1.814079295774647 0.5787970422535212
C -1.8438954929577462 -2.213429295774647 -1.4808029577464787
C 0.5129345070422537 -1.5763292957746469 -0.13022295774647863
H -0.6401854929577462 -1.7032692957746463 1.6609470422535213
C -0.6547954929577462 -1.9962392957746466 -2.1933129577464787
H -2.7578654929577464 -2.4351492957746466 -2.026182957746479
C 0.5308845070422537 -1.645769295774647 -1.5261029577464789
H 1.4044045070422537 -1.2610992957746463 0.41551704225352126
H -0.6795654929577464 -2.0467992957746466 -3.2793129577464786
C 1.7843245070422535 -1.2521692957746469 -2.2771629577464787
H 1.4981245070422535 -0.9384492957746469 -3.290282957746479
H 2.241984507042254 -0.38631929577464685 -1.8135029577464787
C 0.9385645070422537 2.0647807042253534 1.9815670422535212
H 1.0508945070422537 1.5807407042253532 2.9609770422535213
H 1.6053245070422537 1.5496207042253536 1.3096170422535214
C 3.9676945070422533 -1.6881692957746468 -3.314052957746479
H 4.795084507042254 -2.398849295774647 -3.4044129577464783
H 3.548404507042253 -1.4816192957746468 -4.303802957746479
H 4.307714507042253 -0.7637192957746466 -2.851282957746479
C 2.344694507042253 -3.565079295774647 -3.101282957746479
H 1.6334345070422536 -4.047909295774646 -2.4251929577464786
H 1.8561845070422536 -3.293109295774647 -4.041792957746479
H 3.1808045070422537 -4.243519295774647 -3.298122957746479
C 3.5156645070422536 -2.648489295774647 -1.1110629577464786
H 3.9311845070422535 -1.748249295774647 -0.6771029577464787
H 2.767184507042254 -3.1044092957746465 -0.45972295774647876
H 4.319224507042254 -3.371819295774647 -1.2863129577464787
C 2.963994507042253 3.381090704225353 2.401027042253521
H 3.3337945070422537 4.369820704225353 2.6912870422535216
H 3.120994507042253 2.671350704225353 3.2183370422535216
H 3.4665445070422534 3.0664207042253535 1.4881370422535212
C 1.2973745070422538 4.282440704225354 0.8488370422535213
H 1.7592145070422538 3.7367207042253527 0.02653704225352116
H 0.23311450704225378 4.4484607042253534 0.6605570422535213
H 1.7921845070422535 5.251370704225354 0.9736770422535213
C 0.7724845070422537 4.194670704225353 3.2772470422535216
H -0.2956954929577462 4.278220704225354 3.057857042253521
H 0.9298945070422537 3.612620704225354 4.190337042253521
H 1.2046345070422537 5.193640704225353 3.3918370422535213
N 2.876084507042253 -2.324759295774647 -2.4576629577464786
N 1.4527845070422536 3.504690704225353 2.1388470422535213
C -3.593905492957746 -3.637819295774647 0.8297870422535213
H -2.8952554929577463 -1.8680692957746468 1.7595270422535212
H -5.022615492957747 -1.2402792957746467 1.1579970422535213
H -4.898275492957747 -1.7933092957746464 -0.48931295774647876
H -3.883675492957746 0.07871070422535364 -1.2758929577464788
H -3.8751654929577466 -4.038529295774646 -0.1505529577464788
H -4.4603554929577465 -3.7321892957746465 1.4932570422535212
H -2.7953554929577464 -4.271929295774647 1.2313670422535212
H -5.648775492957746 1.147700704225353 0.9733970422535213
H -6.189795492957747 0.5254307042253537 -0.5943629577464788
H -5.2178854929577465 2.002970704225354 -0.5139729577464787
C 3.6710445070422537 1.0263707042253536 -0.27764295774647874
O 2.7356545070422538 1.6631507042253526 -0.7327029577464788
O 3.650814507042253 0.3883007042253537 0.7790570422535212
O 4.756604507042254 0.8696707042253538 -0.8334829577464786
O 5.372399097649014 3.8695078683348703 2.236548407329616
H 5.761622541722022 3.462265512550628 1.448115701806026
H 4.960062001106807 3.1275351259543265 2.7038989317536677
O 11.089669117838538 4.5196940697852455 -3.6299771364076863
H 11.691016598949702 3.794094445011931 -3.404469379578602
H 10.479393438996635 4.126943337699301 -4.272061556527043
O -2.129883775867695 5.605253039306242 11.952957286538439
H -1.7334119931471026 4.767563919193246 12.23589618533228
H -1.3777073008093934 6.121888176833185 11.626950186398908
O 8.261329917245138 5.1496796516125976 3.970579188791576
H 7.8827845555763965 4.810499713642607 4.7955808468127925
H 9.215960221789057 5.15695280210626 4.136681648822369
O 7.9308195910183 1.1358818637148311 4.343016688822902
H 8.692083609281493 1.6831132201366161 4.587929518104159
H 7.332915451959988 1.213688015209429 5.101580323323356
O 3.2765344709344912 -2.64578028337661 4.034579985091207
H 3.317071251419474 -3.363286762994 4.684586583546157
H 2.336863262950314 -2.4112820821399596 4.003106840946834
O 7.398487453446279 1.7326941899263701 -9.282418136778219
H 7.289517647473893 1.8702927769465787 -10.23539220102991
H 6.500082083011128 1.5513204480227463 -8.967881492774449
O 0.13842013149271182 7.734459188700316 0.1043634882127204
H -0.28272105947691384 7.6633123476465395 -0.765432798958451
H 0.5250205973315984 8.62299800866089 0.10525204672320432
O -6.33274120117005 -10.73694718057137 -4.418845318276423
H -7.090355473775798 -11.283244057294512 -4.676813714260516
H -5.625080206971818 -11.379084159846524 -4.2581034088758205
O -0.852170725438369 12.741145097648104 -0.2624490165879285
H -0.5646443124035674 12.97109948127557 0.6338862444376852
H -0.8810726805642926 13.592352408465205 -0.7245883195058025
O -1.9109103516693717 5.8345195477833185 2.714472956079192
H -2.783711172580415 6.248420975628879 2.6378459899092026
H -1.907489896852787 5.459155148534654 3.607810413351379
O -2.225641571089506 2.7527180041470443 -8.938691439808462
H -2.1513106657246497 2.0060238389613136 -9.551790205983394
H -2.3429136067796437 3.520516299743556 -9.518083354857492
O 1.0311096409012204 -12.139976605611903 -0.07206119339589445
H 1.3242267714633722 -13.05847699789938 -0.16904951247998223
H 1.8525200062106668 -11.645899406437312 0.06983552016011296
O -4.46442466799262 -0.07678813270941243 7.813176078945806
H -4.92542711445639 -0.8014601703766677 7.364517479253783
H -4.189983548954217 0.5085107387002954 7.09132481475943
O 7.731875720016261 -12.523802681965133 -2.1021542993208797
H 6.78937951688447 -12.62236650026076 -1.899784742062029
H 7.930038608060537 -11.608293531257065 -1.8540889670558842
O 8.435186043754284 -1.920791859429423 -4.862397284724393
H 7.829273394371518 -2.218343055475932 -4.167199108698846
H 8.82534302325236 -1.1104373824436395 -4.501751894794017
O 4.890674559021452 -3.94425867469716 8.277049797097293
H 4.8590424859773265 -3.9322668455677956 9.245462397639574
H 5.716213034394112 -3.4837096830360093 8.06411131711004
O -5.493387595195838 1.507949938355653 -7.006926774626396
H -5.4969640414993455 1.4653036342971975 -7.9749845511469895
H -5.824801378298973 0.6395159239855258 -6.733158238533856
O 4.977718378673761 -1.2189110791926419 -8.23774529282673
H 5.3591101707112125 -1.727787101775645 -8.968876506431076
H 5.23833524793298 -1.7143101849645062 -7.446783525256413
O 7.859047860002262 -9.258003338700107 -4.537961693083764
H 7.448930001615705 -9.189265681606223 -5.41320213640758
H 7.522732669785626 -10.096295078975379 -4.187075678378414
O 3.4786053676994797 -0.2838425056039654 6.056343438195889
H 2.885301534650153 0.47643627562047863 6.150863771504929
H 4.158724042638449 -0.1352060935117575 6.730366990677266
O -6.1938580229785005 7.166121990249771 -12.118443473849412
H -6.1493238469101605 7.135225275039778 -13.085929627265136
H -6.204599753261443 6.233756263286492 -11.854737746352333
O -8.34457764864896 -5.745345363679705 -1.1884052976378356
H -9.19275472095812 -6.211015385787733 -1.1363049961130725
H -8.368455955134701 -5.311723097474539 -2.0546405434172197
O -10.008034263441273 -2.651460368372854 0.8930919745893562
H -9.995189778090172 -2.6105824263463293 1.8611474326865372
H -9.683800570316983 -1.7808198933982435 0.617738347631276
C 2.1624041605301323 -3.9439907181114875 11.108696857230346
O 1.1141438981037144 -3.580985749789108 11.558359033192438
O 3.21066442295655 -4.306995686433867 10.659034681268249