146

C -5.3564454929577465 1.0091607042253532 -0.0734429577464788
C -4.079135492957747 0.16955070422535368 -0.19788295774647868
C -4.333545492957747 -1.2789292957746463 0.3017270422535212
C -3.1403854929577464 -2.1745492957746464 0.7330270422535212
C -2.905235492957746 0.902300704225353 0.41966704225352136
C -2.7423854929577463 1.056130704225354 1.8024770422535212
C -1.8861754929577463 1.3499307042253532 -0.4326129577464788
C -1.5304554929577463 1.5279207042253526 2.3254170422535214
H -3.5237954929577464 0.7301007042253529 2.484817042253521
C -0.6776454929577462 1.8010507042253527 0.08546704225352131
H -1.9759254929577463 1.2426607042253535 -1.5115229577464788
C -0.4680254929577463 1.8513207042253539 1.4698070422535212
H -1.3950654929577464 1.5446707042253527 3.404047042253521
H 0.1461845070422536 1.9972507042253538 -0.6030529577464789
C -1.8679654929577463 -2.0866092957746467 -0.08765295774647863
C -0.6628654929577462 -1.814079295774647 0.5787970422535212
C -1.8438954929577462 -2.213429295774647 -1.4808029577464787
C 0.5129345070422537 -1.5763292957746469 -0.13022295774647863
H -0.6401854929577462 -1.7032692957746463 1.6609470422535213
C -0.6547954929577462 -1.9962392957746466 -2.1933129577464787
H -2.7578654929577464 -2.4351492957746466 -2.026182957746479
C 0.5308845070422537 -1.645769295774647 -1.5261029577464789
H 1.4044045070422537 -1.2610992957746463 0.41551704225352126
H -0.6795654929577464 -2.0467992957746466 -3.2793129577464786
C 1.7843245070422535 -1.2521692957746469 -2.2771629577464787
H 1.4981245070422535 -0.9384492957746469 -3.290282957746479
H 2.241984507042254 -0.38631929577464685 -1.8135029577464787
C 0.9385645070422537 2.0647807042253534 1.9815670422535212
H 1.0508945070422537 1.5807407042253532 2.9609770422535213
H 1.6053245070422537 1.5496207042253536 1.3096170422535214
C 3.9676945070422533 -1.6881692957746468 -3.314052957746479
H 4.795084507042254 -2.398849295774647 -3.4044129577464783
H 3.548404507042253 -1.4816192957746468 -4.303802957746479
H 4.307714507042253 -0.7637192957746466 -2.851282957746479
C 2.344694507042253 -3.565079295774647 -3.101282957746479
H 1.6334345070422536 -4.047909295774646 -2.4251929577464786
H 1.8561845070422536 -3.293109295774647 -4.041792957746479
H 3.1808045070422537 -4.243519295774647 -3.298122957746479
C 3.5156645070422536 -2.648489295774647 -1.1110629577464786
H 3.9311845070422535 -1.748249295774647 -0.6771029577464787
H 2.767184507042254 -3.1044092957746465 -0.45972295774647876
H 4.319224507042254 -3.371819295774647 -1.2863129577464787
C 2.963994507042253 3.381090704225353 2.401027042253521
H 3.3337945070422537 4.369820704225353 2.6912870422535216
H 3.120994507042253 2.671350704225353 3.2183370422535216
H 3.4665445070422534 3.0664207042253535 1.4881370422535212
C 1.2973745070422538 4.282440704225354 0.8488370422535213
H 1.7592145070422538 3.7367207042253527 0.02653704225352116
H 0.23311450704225378 4.4484607042253534 0.6605570422535213
H 1.7921845070422535 5.251370704225354 0.9736770422535213
C 0.7724845070422537 4.194670704225353 3.2772470422535216
H -0.2956954929577462 4.278220704225354 3.057857042253521
H 0.9298945070422537 3.612620704225354 4.190337042253521
H 1.2046345070422537 5.193640704225353 3.3918370422535213
N 2.876084507042253 -2.324759295774647 -2.4576629577464786
N 1.4527845070422536 3.504690704225353 2.1388470422535213
C -3.593905492957746 -3.637819295774647 0.8297870422535213
H -2.8952554929577463 -1.8680692957746468 1.7595270422535212
H -5.022615492957747 -1.2402792957746467 1.1579970422535213
H -4.898275492957747 -1.7933092957746464 -0.48931295774647876
H -3.883675492957746 0.07871070422535364 -1.2758929577464788
H -3.8751654929577466 -4.038529295774646 -0.1505529577464788
H -4.4603554929577465 -3.7321892957746465 1.4932570422535212
H -2.7953554929577464 -4.271929295774647 1.2313670422535212
H -5.648775492957746 1.147700704225353 0.9733970422535213
H -6.189795492957747 0.5254307042253537 -0.5943629577464788
H -5.2178854929577465 2.002970704225354 -0.5139729577464787
C 3.6710445070422537 1.0263707042253536 -0.27764295774647874
O 2.7356545070422538 1.6631507042253526 -0.7327029577464788
O 3.650814507042253 0.3883007042253537 0.7790570422535212
O 4.756604507042254 0.8696707042253538 -0.8334829577464786
O -8.842819427667223 -7.060003280471012 4.2404653058257225
H -8.158291812214708 -7.016930101672282 4.924960741786451
H -8.35954474887848 -6.9008009520613545 3.415806498942185
O 6.916486139123975 8.02540491153045 0.2161844006984186
H 6.3254246733791115 8.601625809115903 -0.2913421284577895
H 7.657214487371736 8.60244938182288 0.45556513866008164
O 0.6697722001481421 3.0254120799608852 7.5158612694973534
H 0.44226241654431964 3.0997767687854902 6.576884939486547
H 1.499497497876094 2.5248952195373238 7.516725585412985
O 5.945672430788385 -1.3061564707793165 -13.719675738883415
H 5.723179354153878 -1.193987999251923 -14.656095741737326
H 5.853658549005441 -0.4156230690186318 -13.348939107016832
O -4.934002884323267 -4.76264494852174 -14.27641639973432
H -4.320580373401735 -4.874889154790716 -15.018091138520653
H -4.486230123723492 -4.128752715392405 -13.696207699400412
O 3.939488126631323 4.322450606609067 -6.607952427812723
H 4.6177428908970715 4.3861665782155566 -7.29706642898601
H 4.070499947146029 3.439208062825757 -6.2315477837969935
O 8.767540521997848 4.35424648448539 0.8850678661507038
H 8.715665414228308 4.370796745349006 -0.08240431379001471
H 8.77430523570683 3.410091023364943 1.102982180010234
O -5.776696472907995 -9.009461741685946 -7.902057045074629
H -6.478955950709222 -8.869061118387702 -8.554810174301762
H -6.153185174051419 -9.658814039496649 -7.289227708685375
O 9.358547560110436 -1.0111648567091818 2.6132234821382814
H 10.126283110967174 -0.6151611841808426 3.0522343842748554
H 9.740159074190359 -1.7061371843549917 2.056134566050201
O -2.4245142097787853 6.897134190660675 6.280722321704014
H -1.5099832566386282 6.594965496350086 6.386998249491975
H -2.7467147143183004 6.9922307246201605 7.1896257425378085
O -3.3524134511242307 0.18648398399399913 -5.341582263416251
H -3.057728719000727 -0.4093187580601314 -4.6364954899521065
H -2.8011905519841926 -0.05789515603198936 -6.100129622309425
O 0.3644578861153769 -3.9928796766232386 -9.902571362092143
H -0.47358108920151754 -3.958840433932465 -9.417288596370085
H 1.015806815749692 -4.237089873939106 -9.2279841581732
O -13.415547102783776 2.983737269889465 -1.2820947727118357
H -14.151653339948126 3.4899430453139084 -1.6574221996801854
H -13.814261791888669 2.5072372817660646 -0.5384979045699714
O -9.72004258409939 -1.5183669119853738 6.503012080312082
H -9.586960165706502 -0.9573764881432898 5.724201338750193
H -9.147507171606886 -2.283196232924347 6.341144061314917
O -4.8031301242657936 -8.706505270971553 -4.14214500058853
H -4.70815752729459 -9.365282409940606 -3.437900551624753
H -5.355677551329885 -9.149150099975357 -4.803748235542113
O -1.1333517778466746 -2.693152800912863 4.638721570535148
H -0.29235390031606867 -2.769193027182705 4.163423968102896
H -1.6523003029766004 -3.446060555271815 4.318121685956825
O 1.0665255921565655 7.626851989418796 1.1440154266739824
H 0.3331992489006925 7.668410605958025 0.5119768894167076
H 0.6825381737706464 7.19122744561026 1.9197388720157624
O 0.12170659426153763 0.8080512470237031 11.637818475562069
H 0.4219460476046859 1.058466647446994 12.524450166168181
H 0.7341714747585756 0.10536960042971355 11.373078569243232
O 0.4880525494578789 -12.248943083433124 -7.515217406219563
H 0.4142305573228149 -12.661720226192246 -8.38879207434635
H 1.4318292451594417 -12.04597164771983 -7.431252596715075
O 3.299690456863565 0.46447834362615226 4.374350704477507
H 3.2587827248140537 1.426487363778696 4.265573135541126
H 2.3965540249709214 0.21866951051487568 4.625118619595641
O -6.233957948605581 4.643546842078399 -9.013164183190582
H -5.82559182994661 5.409302155357137 -9.444236416368257
H -6.920951064056334 5.030725082203631 -8.450051926178897
O -1.4554418686311008 -7.036669759955974 -6.284777623994015
H -1.4091272677314897 -6.95628401005344 -7.249329564459699
H -0.9038631229388265 -6.308097040647239 -5.962435221757493
O -1.157478351863918 0.6509461482614562 -10.004099914721419
H -0.7882825478249265 -0.17826096898853905 -9.664869356130424
H -1.405929328229784 1.1405032396063315 -9.2056214172296
O -2.7969175341352983 9.605192560506158 -0.13814644764953465
H -2.1828221393561122 9.94854643806061 0.5281585259018566
H -2.9801066202899653 8.700443023216422 0.1565262144482995
C -7.3796354640262605 4.559888543946727 1.2231206768527134
O -7.962378936751676 3.7327218410857563 0.5835711885611237
O -6.7968919913008445 5.387055246807695 1.8626701651443032