146

C -5.3564454929577465 1.0091607042253532 -0.0734429577464788
C -4.079135492957747 0.16955070422535368 -0.19788295774647868
C -4.333545492957747 -1.2789292957746463 0.3017270422535212
C -3.1403854929577464 -2.1745492957746464 0.7330270422535212
C -2.905235492957746 0.902300704225353 0.41966704225352136
C -2.7423854929577463 1.056130704225354 1.8024770422535212
C -1.8861754929577463 1.3499307042253532 -0.4326129577464788
C -1.5304554929577463 1.5279207042253526 2.3254170422535214
H -3.5237954929577464 0.7301007042253529 2.484817042253521
C -0.6776454929577462 1.8010507042253527 0.08546704225352131
H -1.9759254929577463 1.2426607042253535 -1.5115229577464788
C -0.4680254929577463 1.8513207042253539 1.4698070422535212
H -1.3950654929577464 1.5446707042253527 3.404047042253521
H 0.1461845070422536 1.9972507042253538 -0.6030529577464789
C -1.8679654929577463 -2.0866092957746467 -0.08765295774647863
C -0.6628654929577462 -1.814079295774647 0.5787970422535212
C -1.8438954929577462 -2.213429295774647 -1.4808029577464787
C 0.5129345070422537 -1.5763292957746469 -0.13022295774647863
H -0.6401854929577462 -1.7032692957746463 1.6609470422535213
C -0.6547954929577462 -1.9962392957746466 -2.1933129577464787
H -2.7578654929577464 -2.4351492957746466 -2.026182957746479
C 0.5308845070422537 -1.645769295774647 -1.5261029577464789
H 1.4044045070422537 -1.2610992957746463 0.41551704225352126
H -0.6795654929577464 -2.0467992957746466 -3.2793129577464786
C 1.7843245070422535 -1.2521692957746469 -2.2771629577464787
H 1.4981245070422535 -0.9384492957746469 -3.290282957746479
H 2.241984507042254 -0.38631929577464685 -1.8135029577464787
C 0.9385645070422537 2.0647807042253534 1.9815670422535212
H 1.0508945070422537 1.5807407042253532 2.9609770422535213
H 1.6053245070422537 1.5496207042253536 1.3096170422535214
C 3.9676945070422533 -1.6881692957746468 -3.314052957746479
H 4.795084507042254 -2.398849295774647 -3.4044129577464783
H 3.548404507042253 -1.4816192957746468 -4.303802957746479
H 4.307714507042253 -0.7637192957746466 -2.851282957746479
C 2.344694507042253 -3.565079295774647 -3.101282957746479
H 1.6334345070422536 -4.047909295774646 -2.4251929577464786
H 1.8561845070422536 -3.293109295774647 -4.041792957746479
H 3.1808045070422537 -4.243519295774647 -3.298122957746479
C 3.5156645070422536 -2.648489295774647 -1.1110629577464786
H 3.9311845070422535 -1.748249295774647 -0.6771029577464787
H 2.767184507042254 -3.1044092957746465 -0.45972295774647876
H 4.319224507042254 -3.371819295774647 -1.2863129577464787
C 2.963994507042253 3.381090704225353 2.401027042253521
H 3.3337945070422537 4.369820704225353 2.6912870422535216
H 3.120994507042253 2.671350704225353 3.2183370422535216
H 3.4665445070422534 3.0664207042253535 1.4881370422535212
C 1.2973745070422538 4.282440704225354 0.8488370422535213
H 1.7592145070422538 3.7367207042253527 0.02653704225352116
H 0.23311450704225378 4.4484607042253534 0.6605570422535213
H 1.7921845070422535 5.251370704225354 0.9736770422535213
C 0.7724845070422537 4.194670704225353 3.2772470422535216
H -0.2956954929577462 4.278220704225354 3.057857042253521
H 0.9298945070422537 3.612620704225354 4.190337042253521
H 1.2046345070422537 5.193640704225353 3.3918370422535213
N 2.876084507042253 -2.324759295774647 -2.4576629577464786
N 1.4527845070422536 3.504690704225353 2.1388470422535213
C -3.593905492957746 -3.637819295774647 0.8297870422535213
H -2.8952554929577463 -1.8680692957746468 1.7595270422535212
H -5.022615492957747 -1.2402792957746467 1.1579970422535213
H -4.898275492957747 -1.7933092957746464 -0.48931295774647876
H -3.883675492957746 0.07871070422535364 -1.2758929577464788
H -3.8751654929577466 -4.038529295774646 -0.1505529577464788
H -4.4603554929577465 -3.7321892957746465 1.4932570422535212
H -2.7953554929577464 -4.271929295774647 1.2313670422535212
H -5.648775492957746 1.147700704225353 0.9733970422535213
H -6.189795492957747 0.5254307042253537 -0.5943629577464788
H -5.2178854929577465 2.002970704225354 -0.5139729577464787
C 3.6710445070422537 1.0263707042253536 -0.27764295774647874
O 2.7356545070422538 1.6631507042253526 -0.7327029577464788
O 3.650814507042253 0.3883007042253537 0.7790570422535212
O 4.756604507042254 0.8696707042253538 -0.8334829577464786
O -10.888294798235608 -4.295925494283973 -9.04340831631136
H -11.723364411421649 -4.279057562147917 -8.552143040824916
H -10.667489324330656 -3.3598860339267835 -9.16188622837867
O -1.0576341830791562 1.1585221490994932 10.743542960587423
H -1.2391764297707388 0.6099465058004926 11.52140833013749
H -0.27228366591970676 1.667714865605176 10.994360198740917
O -4.992502191223856 -6.446655425279481 8.16908058127404
H -4.977316736943113 -6.5008297603306975 7.201712037077956
H -4.59973484773841 -7.2845193602902105 8.456621508099634
O -9.680368697110808 3.4179978353390017 -0.3528234541226189
H -9.754111310617875 3.376195296034751 0.6124650683207309
H -10.451549593459227 2.9231971999185733 -0.6681237880818315
O -1.951309694306925 -8.896404337820716 9.763831180231854
H -2.455462162789697 -9.6583022267132 10.086800609627124
H -1.5957988065074726 -8.492380325200951 10.569646636885963
O -5.842498098655595 -5.871663449794532 3.6225799490535335
H -5.537096091196318 -5.00121850575845 3.919265928064788
H -6.7158721917446496 -5.695878986911275 3.241424520875325
O -11.447576857113756 -4.258535318635795 3.664281984629299
H -11.053812000306905 -4.240290508531106 2.779079340401364
H -11.170387675306351 -5.113614727882689 4.026176037731757
O -2.7673374979036893 8.215392750827256 6.474720156023387
H -2.768647821034232 8.384828819296118 5.5206462287750275
H -3.707302762630736 8.181020970895359 6.707627489851507
O -1.4784121606157563 -8.414919712185974 -6.743133261040079
H -0.7492333120448853 -7.867338087994215 -7.070883056683607
H -1.6677377961637663 -9.017056527461747 -7.478353638691495
O -8.197033189084644 4.940336116127301 6.523360197875444
H -8.492551428889268 5.674535052727027 5.964264277358572
H -8.772876787353965 4.991816931393827 7.300994958088575
O -12.684085297263014 -3.5117288121905985 -0.13210092247811378
H -13.404160137762176 -2.977569853171119 0.23550455555415262
H -13.134062487594438 -4.142335842780168 -0.7141810247427767
O 4.2881372420439625 0.08806448104266477 -5.2485422158620905
H 4.900708440934474 0.5426125456099812 -5.846128979594312
H 4.864322971896036 -0.46183578846831075 -4.6966530579629815
O 7.310227475815237 9.193615809837862 1.3720575948472802
H 7.95392532011112 9.740934251605157 1.8464656106419683
H 7.347161938211195 8.339840611630581 1.8288570045597279
O 5.337799903800044 -3.002206768205826 8.825126420985004
H 5.603805567984141 -2.7491846690418793 9.721891808841074
H 5.866197946044213 -2.4257966314268993 8.252842568800595
O -8.460381669696504 -7.342597063313251 -10.605656312973725
H -8.618439514359908 -7.415909708148179 -11.558866851494816
H -8.839892679245969 -8.156731467719345 -10.242175213749736
O -4.796218028652727 -13.431328860123749 1.8489269534907926
H -4.650689977082971 -13.997123089530687 2.622015456235542
H -5.13025760514499 -12.602964887662278 2.224683037626127
O 8.040239947696842 6.4986846450397735 -8.045489139337453
H 8.586389628817443 6.619350788149544 -8.836771367508211
H 8.60990606771305 5.998503594342893 -7.441948442673637
O -10.404965473628845 -7.6214273645097705 3.0215137956353804
H -10.77000672977559 -8.197447563168163 3.7099271663279847
H -9.78831083305101 -7.046959300586582 3.499724462691397
O 9.369137920366958 -6.321229833623208 -6.874401925730982
H 9.593891425413123 -5.446600632560134 -6.523009012431303
H 9.074889248561941 -6.14113130610022 -7.779909619693345
O -0.5035362278895639 8.871339782629642 -5.555713512626189
H -1.3585116501654313 9.311028349008259 -5.434641844593907
H -0.06488915738763529 8.972171376791563 -4.697585502677301
O 0.8385185419123125 7.985819620892907 7.680640097591551
H 0.7353463817208876 7.8996650003066895 6.721004623250861
H 0.5780579456944839 7.117515184844898 8.022940591977992
O -8.655196672889673 2.1056086385143606 -9.727784461457135
H -8.069410554409345 2.831283412227439 -9.99087779678174
H -9.32270987519016 2.5337816768354724 -9.170957811314187
O 9.809700943729052 -2.7398733764293577 1.1184171719484493
H 9.584200487919148 -1.839452247085914 1.3965514761279287
H 8.999961376656668 -3.06418898371978 0.6963944655862528
O 2.5189972682318063 4.860533311688326 -12.585534502063544
H 2.0391054302558747 5.449951337137793 -13.186581565128773
H 2.1959961910025747 5.1091954696423185 -11.70644441588897
C -8.957076114125524 -1.3912259411329564 -2.119213836410123
O -9.720361423062052 -0.7261965351613457 -2.757923225455498
O -8.193790805188996 -2.056255347104567 -1.4805044473647486