146

C -5.3564454929577465 1.0091607042253532 -0.0734429577464788
C -4.079135492957747 0.16955070422535368 -0.19788295774647868
C -4.333545492957747 -1.2789292957746463 0.3017270422535212
C -3.1403854929577464 -2.1745492957746464 0.7330270422535212
C -2.905235492957746 0.902300704225353 0.41966704225352136
C -2.7423854929577463 1.056130704225354 1.8024770422535212
C -1.8861754929577463 1.3499307042253532 -0.4326129577464788
C -1.5304554929577463 1.5279207042253526 2.3254170422535214
H -3.5237954929577464 0.7301007042253529 2.484817042253521
C -0.6776454929577462 1.8010507042253527 0.08546704225352131
H -1.9759254929577463 1.2426607042253535 -1.5115229577464788
C -0.4680254929577463 1.8513207042253539 1.4698070422535212
H -1.3950654929577464 1.5446707042253527 3.404047042253521
H 0.1461845070422536 1.9972507042253538 -0.6030529577464789
C -1.8679654929577463 -2.0866092957746467 -0.08765295774647863
C -0.6628654929577462 -1.814079295774647 0.5787970422535212
C -1.8438954929577462 -2.213429295774647 -1.4808029577464787
C 0.5129345070422537 -1.5763292957746469 -0.13022295774647863
H -0.6401854929577462 -1.7032692957746463 1.6609470422535213
C -0.6547954929577462 -1.9962392957746466 -2.1933129577464787
H -2.7578654929577464 -2.4351492957746466 -2.026182957746479
C 0.5308845070422537 -1.645769295774647 -1.5261029577464789
H 1.4044045070422537 -1.2610992957746463 0.41551704225352126
H -0.6795654929577464 -2.0467992957746466 -3.2793129577464786
C 1.7843245070422535 -1.2521692957746469 -2.2771629577464787
H 1.4981245070422535 -0.9384492957746469 -3.290282957746479
H 2.241984507042254 -0.38631929577464685 -1.8135029577464787
C 0.9385645070422537 2.0647807042253534 1.9815670422535212
H 1.0508945070422537 1.5807407042253532 2.9609770422535213
H 1.6053245070422537 1.5496207042253536 1.3096170422535214
C 3.9676945070422533 -1.6881692957746468 -3.314052957746479
H 4.795084507042254 -2.398849295774647 -3.4044129577464783
H 3.548404507042253 -1.4816192957746468 -4.303802957746479
H 4.307714507042253 -0.7637192957746466 -2.851282957746479
C 2.344694507042253 -3.565079295774647 -3.101282957746479
H 1.6334345070422536 -4.047909295774646 -2.4251929577464786
H 1.8561845070422536 -3.293109295774647 -4.041792957746479
H 3.1808045070422537 -4.243519295774647 -3.298122957746479
C 3.5156645070422536 -2.648489295774647 -1.1110629577464786
H 3.9311845070422535 -1.748249295774647 -0.6771029577464787
H 2.767184507042254 -3.1044092957746465 -0.45972295774647876
H 4.319224507042254 -3.371819295774647 -1.2863129577464787
C 2.963994507042253 3.381090704225353 2.401027042253521
H 3.3337945070422537 4.369820704225353 2.6912870422535216
H 3.120994507042253 2.671350704225353 3.2183370422535216
H 3.4665445070422534 3.0664207042253535 1.4881370422535212
C 1.2973745070422538 4.282440704225354 0.8488370422535213
H 1.7592145070422538 3.7367207042253527 0.02653704225352116
H 0.23311450704225378 4.4484607042253534 0.6605570422535213
H 1.7921845070422535 5.251370704225354 0.9736770422535213
C 0.7724845070422537 4.194670704225353 3.2772470422535216
H -0.2956954929577462 4.278220704225354 3.057857042253521
H 0.9298945070422537 3.612620704225354 4.190337042253521
H 1.2046345070422537 5.193640704225353 3.3918370422535213
N 2.876084507042253 -2.324759295774647 -2.4576629577464786
N 1.4527845070422536 3.504690704225353 2.1388470422535213
C -3.593905492957746 -3.637819295774647 0.8297870422535213
H -2.8952554929577463 -1.8680692957746468 1.7595270422535212
H -5.022615492957747 -1.2402792957746467 1.1579970422535213
H -4.898275492957747 -1.7933092957746464 -0.48931295774647876
H -3.883675492957746 0.07871070422535364 -1.2758929577464788
H -3.8751654929577466 -4.038529295774646 -0.1505529577464788
H -4.4603554929577465 -3.7321892957746465 1.4932570422535212
H -2.7953554929577464 -4.271929295774647 1.2313670422535212
H -5.648775492957746 1.147700704225353 0.9733970422535213
H -6.189795492957747 0.5254307042253537 -0.5943629577464788
H -5.2178854929577465 2.002970704225354 -0.5139729577464787
C 3.6710445070422537 1.0263707042253536 -0.27764295774647874
O 2.7356545070422538 1.6631507042253526 -0.7327029577464788
O 3.650814507042253 0.3883007042253537 0.7790570422535212
O 4.756604507042254 0.8696707042253538 -0.8334829577464786
O 3.279139636644004 -2.1505757157103345 -6.360905501877019
H 2.369745717318396 -1.8161051448459953 -6.350930853046429
H 3.7215837405349603 -1.6057821362769236 -7.029041053273784
O -10.736966181698143 -3.8149707536262687 0.45371003285142164
H -10.775158791261678 -3.2266262581445657 1.2227090160179204
H -11.659466810844869 -4.075756873166455 0.3124827926352953
O 5.632656212771729 1.6830633772229375 -3.1923655599227865
H 5.247364539298771 2.5714861258929806 -3.157398391064355
H 6.072992474929454 1.652693729141582 -4.0550031460528935
O -1.2320802178240997 4.661091978943029 5.305629157769414
H -1.5326034804177202 4.7376693121965605 6.223664580600071
H -1.7813170318409142 3.9525259789782647 4.937885918371878
O 0.04856623828109541 9.717626723576542 -4.348407488806803
H -0.4222136103109859 9.487002990322342 -3.533455720467403
H -0.6442025881597564 9.721120863223366 -5.025918439566931
O 0.3786213236691949 11.79948358026224 5.992617379118334
H 1.0387222079802951 11.85165376992045 5.285148333334187
H 0.22769034569211533 12.723989391334358 6.240550413385188
O -0.29360574327790556 -5.1041059230729635 -0.804714602009547
H 0.46564945737024255 -5.051364240914573 -1.4044788991728956
H -1.0558054482166601 -5.180477876838459 -1.398162896951336
O 3.128363930612805 -0.013766368467522883 -5.301412323471729
H 2.9836661194892744 -0.08509491918217327 -6.256892379887879
H 2.304114351482257 -0.3452082370980203 -4.914474520560411
O -8.807539865922545 -2.202426680007986 -0.43447580981297884
H -7.995806640578752 -2.645633105758953 -0.723654979093924
H -8.787604584377446 -1.3517297807942867 -0.8980265778178591
O 6.887955904421927 -6.0410927326322525 2.3703584845957932
H 7.736814474516448 -5.587588694291307 2.257484341916691
H 6.717386807217187 -6.437838984932064 1.5029136513845902
O -0.507785250378842 6.106709466555776 -0.4887874059004731
H 0.35932524073506167 5.729064218740139 -0.27790634960932126
H -0.7066416922254466 6.674761239093786 0.2706434622847307
O 0.436693778125262 3.5550421432918027 8.237157565729781
H 0.23070757825815535 3.6047331316825946 9.182709176186373
H 1.0421592348902244 4.297184140548608 8.090192328778743
O 4.199580564768322 4.446499960908184 5.987577858326948
H 3.6383201324377197 3.667948259745173 6.1210369629854435
H 4.985154860354498 4.0951404737971435 5.542177497717139
O -1.4858242053977584 9.951313558866142 -1.2520793282707572
H -1.0026928988152597 9.925809476170928 -2.091663177130277
H -0.8805352042940338 10.406304154832455 -0.6474548770408437
O 6.102592549170375 1.3161623747495783 2.304778878494843
H 5.272956538742482 1.4795717861746558 1.8315254460096682
H 5.82910576242337 1.2164273557403935 3.229019024646283
O 1.0737161582197245 -12.069495796605562 -2.603401549906194
H 1.7220844727466027 -12.67600229548012 -2.2151545248815303
H 1.1938567667730433 -12.178641471199946 -3.55871060994581
O -11.086336067490883 2.626322685003559 1.5107578335717013
H -11.517795042029224 2.6573860911734206 0.643667541279457
H -10.736497210064798 1.72436362092599 1.5659354092988653
O 8.731013199292857 -0.3548152215063225 10.910085891960358
H 8.799706905995036 -0.9433976135148874 11.676779637452647
H 8.135333430956589 -0.8244413255317777 10.307110867342656
O -3.5187519237099374 6.868736922300506 -6.5011532437402355
H -2.581483745213464 6.825405367243192 -6.743264984087991
H -3.930484778112268 6.171583404800145 -7.0335205736381
O -4.299836641351879 -13.346228439387334 4.312263204456281
H -4.706874929636356 -13.817700176965115 5.054558017475899
H -4.758388088320677 -12.492723303394381 4.297380408466569
O 10.03011475950282 -8.528659943329085 3.0028366375591444
H 9.360042977786316 -8.19811858234926 3.619856550470287
H 10.832305663787826 -8.042528462563226 3.2459988895449263
O -5.1742123711699355 -0.5676627120789306 -6.699157430602701
H -5.425542383869174 -0.19882875598213556 -7.559251666397006
H -6.000447434798076 -0.5650504602110245 -6.192905773744591
O -11.47498757262779 -2.392983608429409 9.009400411522146
H -11.887776609647606 -2.00642084943453 9.796256053412398
H -11.396061735266244 -3.3343802418344177 9.225050672617503
O -13.134238792208226 3.5150522535804014 -3.051778586169338
H -13.771589655429494 3.227512029749633 -3.722652533890113
H -12.393062779775946 3.8657349881320244 -3.5681521743614324
C -3.8854033856266357 -6.576192190426758 -9.897934335547319
O -2.9475322665732993 -6.490978280506747 -9.159046921321181
O -4.823274504679971 -6.661406100346769 -10.636821749773455