146

C -5.3564454929577465 1.0091607042253532 -0.0734429577464788
C -4.079135492957747 0.16955070422535368 -0.19788295774647868
C -4.333545492957747 -1.2789292957746463 0.3017270422535212
C -3.1403854929577464 -2.1745492957746464 0.7330270422535212
C -2.905235492957746 0.902300704225353 0.41966704225352136
C -2.7423854929577463 1.056130704225354 1.8024770422535212
C -1.8861754929577463 1.3499307042253532 -0.4326129577464788
C -1.5304554929577463 1.5279207042253526 2.3254170422535214
H -3.5237954929577464 0.7301007042253529 2.484817042253521
C -0.6776454929577462 1.8010507042253527 0.08546704225352131
H -1.9759254929577463 1.2426607042253535 -1.5115229577464788
C -0.4680254929577463 1.8513207042253539 1.4698070422535212
H -1.3950654929577464 1.5446707042253527 3.404047042253521
H 0.1461845070422536 1.9972507042253538 -0.6030529577464789
C -1.8679654929577463 -2.0866092957746467 -0.08765295774647863
C -0.6628654929577462 -1.814079295774647 0.5787970422535212
C -1.8438954929577462 -2.213429295774647 -1.4808029577464787
C 0.5129345070422537 -1.5763292957746469 -0.13022295774647863
H -0.6401854929577462 -1.7032692957746463 1.6609470422535213
C -0.6547954929577462 -1.9962392957746466 -2.1933129577464787
H -2.7578654929577464 -2.4351492957746466 -2.026182957746479
C 0.5308845070422537 -1.645769295774647 -1.5261029577464789
H 1.4044045070422537 -1.2610992957746463 0.41551704225352126
H -0.6795654929577464 -2.0467992957746466 -3.2793129577464786
C 1.7843245070422535 -1.2521692957746469 -2.2771629577464787
H 1.4981245070422535 -0.9384492957746469 -3.290282957746479
H 2.241984507042254 -0.38631929577464685 -1.8135029577464787
C 0.9385645070422537 2.0647807042253534 1.9815670422535212
H 1.0508945070422537 1.5807407042253532 2.9609770422535213
H 1.6053245070422537 1.5496207042253536 1.3096170422535214
C 3.9676945070422533 -1.6881692957746468 -3.314052957746479
H 4.795084507042254 -2.398849295774647 -3.4044129577464783
H 3.548404507042253 -1.4816192957746468 -4.303802957746479
H 4.307714507042253 -0.7637192957746466 -2.851282957746479
C 2.344694507042253 -3.565079295774647 -3.101282957746479
H 1.6334345070422536 -4.047909295774646 -2.4251929577464786
H 1.8561845070422536 -3.293109295774647 -4.041792957746479
H 3.1808045070422537 -4.243519295774647 -3.298122957746479
C 3.5156645070422536 -2.648489295774647 -1.1110629577464786
H 3.9311845070422535 -1.748249295774647 -0.6771029577464787
H 2.767184507042254 -3.1044092957746465 -0.45972295774647876
H 4.319224507042254 -3.371819295774647 -1.2863129577464787
C 2.963994507042253 3.381090704225353 2.401027042253521
H 3.3337945070422537 4.369820704225353 2.6912870422535216
H 3.120994507042253 2.671350704225353 3.2183370422535216
H 3.4665445070422534 3.0664207042253535 1.4881370422535212
C 1.2973745070422538 4.282440704225354 0.8488370422535213
H 1.7592145070422538 3.7367207042253527 0.02653704225352116
H 0.23311450704225378 4.4484607042253534 0.6605570422535213
H 1.7921845070422535 5.251370704225354 0.9736770422535213
C 0.7724845070422537 4.194670704225353 3.2772470422535216
H -0.2956954929577462 4.278220704225354 3.057857042253521
H 0.9298945070422537 3.612620704225354 4.190337042253521
H 1.2046345070422537 5.193640704225353 3.3918370422535213
N 2.876084507042253 -2.324759295774647 -2.4576629577464786
N 1.4527845070422536 3.504690704225353 2.1388470422535213
C -3.593905492957746 -3.637819295774647 0.8297870422535213
H -2.8952554929577463 -1.8680692957746468 1.7595270422535212
H -5.022615492957747 -1.2402792957746467 1.1579970422535213
H -4.898275492957747 -1.7933092957746464 -0.48931295774647876
H -3.883675492957746 0.07871070422535364 -1.2758929577464788
H -3.8751654929577466 -4.038529295774646 -0.1505529577464788
H -4.4603554929577465 -3.7321892957746465 1.4932570422535212
H -2.7953554929577464 -4.271929295774647 1.2313670422535212
H -5.648775492957746 1.147700704225353 0.9733970422535213
H -6.189795492957747 0.5254307042253537 -0.5943629577464788
H -5.2178854929577465 2.002970704225354 -0.5139729577464787
C 3.6710445070422537 1.0263707042253536 -0.27764295774647874
O 2.7356545070422538 1.6631507042253526 -0.7327029577464788
O 3.650814507042253 0.3883007042253537 0.7790570422535212
O 4.756604507042254 0.8696707042253538 -0.8334829577464786
O 1.9398516554456755 6.402366299319844 -0.5079857352675918
H 2.6942756911641883 6.8934881100978 -0.8666096304675279
H 2.1903104543616934 6.227296906939264 0.41157015873616043
O 2.9525061822882153 5.5392162935939755 6.10338271999945
H 3.210695653324686 5.546386188202289 7.037328193010169
H 2.273159935224811 4.8500314146773915 6.0536351213277255
O 5.777149066835401 2.2993234921348478 -14.185587872825103
H 5.479511122078468 2.473107319390329 -15.091224771435858
H 5.712928515723282 1.3363535157422142 -14.098832529005676
O 1.0045436104018697 6.766770377477121 -13.052595045700313
H 1.0538223252710337 7.679782699150819 -13.373449320461997
H 0.11962988742142544 6.7030543167766545 -12.662941467775376
O -10.17497790679185 -2.306875709450778 -8.409982287505821
H -10.904828638381305 -1.8308438334016568 -8.833867790305211
H -10.600367052261936 -3.081339429126488 -8.012223609256944
O 6.971788755928671 -1.3411999369267633 10.936619406890575
H 7.639244125122859 -1.5086980123680993 10.254406037219983
H 6.131982192633007 -1.3676821829826915 10.453933617593478
O 5.008930108284482 1.1003352362055192 3.58725170454283
H 5.048155119367223 1.691085883699071 2.820151692881046
H 5.738255461054865 0.47913144089600823 3.441813336842225
O 0.5482521363069432 -7.474450871910806 7.406706846342779
H 0.22748026011279432 -8.155389734679447 6.796465070065345
H 0.9989741442155387 -7.9768129796131 8.102008168527451
O -13.0910384483047 -7.6626317257058645 -1.419019176546294
H -13.402711725611535 -8.531521789973715 -1.7137346008617311
H -12.169710911197296 -7.819005314029434 -1.1627677091506627
O 6.2144548898625676 -8.404203196166103 -6.337949725740959
H 6.649153692078574 -8.930194020411774 -5.649954114518524
H 5.313772328045142 -8.760104069549516 -6.370621356599005
O -3.323887678069567 -2.30094438567263 -9.861763151645537
H -4.032982259406469 -2.7878737312665374 -10.307915641292443
H -2.51174960110007 -2.689403068705201 -10.220223107307095
O 2.170665376540522 -10.76847055439816 4.1527663894985105
H 3.131478046742115 -10.724982082141073 4.0348040121876485
H 1.889135815341271 -11.454792638710044 3.529336323607598
O 1.010618203167408 3.107462062294288 -5.244466775026211
H 0.6445855870101298 2.5552686894295515 -5.951623023512588
H 1.1879468990705362 2.481267337373752 -4.526555468254275
O 6.89297590896804 1.930930157922448 -4.844352215049653
H 6.8086325806491645 1.9474791183513067 -3.8791684544233047
H 6.064525053270098 1.5280051310825487 -5.144822757265381
O -6.094769307337659 -2.9096963568624834 0.5350874521200195
H -5.981619529507218 -3.3458052385756796 1.392976447251551
H -6.194553994686895 -3.6439083413030757 -0.08936248372305666
O -1.8394124589141931 -9.316729936144148 7.803339504176357
H -1.5005027083634888 -8.716841238543612 8.484691900791201
H -1.1021697871177683 -9.92341536046873 7.637906789471641
O 5.415867796618036 -4.223540566130195 6.355447549240411
H 5.463595429344293 -3.5960795336764884 7.09232072878115
H 6.077627914839802 -4.895749468385708 6.57719218155324
O -6.35193227901855 -5.064616971100108 4.322352613785746
H -6.745115869399139 -5.356725663573773 3.4862625869723907
H -6.847017701731696 -5.553063954855171 4.9970910168558
O -3.940454598219441 7.391863294564488 2.102629408493283
H -4.234169502323015 7.435898575376497 1.1802629921211145
H -3.281273474505194 6.681625394405694 2.1047068147719017
O 6.186613642444032 11.045207626297742 -1.4700366175234318
H 7.102723236948759 11.256212313135453 -1.704957008057971
H 6.268568195050532 10.305812313937079 -0.8491179693366155
O 15.540745205180167 3.5575598151346166 -1.7974167888710895
H 15.975554047563362 3.3377934913579534 -2.635039251809541
H 14.948393412631125 4.28950931758672 -2.026176977767787
O 3.239878964137773 -9.37816875119739 9.450844171893445
H 2.307493184013105 -9.61358252691046 9.570026671136546
H 3.209500687553641 -8.49012659218614 9.0642950437992
O 7.0072086892239565 9.035210164532346 1.0927104267759535
H 7.373088294026623 9.161902377036073 0.204426375933906
H 6.117345892109619 9.414478766775002 1.0356011108568137
O 2.341224630696318 0.23788348877008714 -9.001461699411557
H 2.440149691192155 1.176497893201742 -9.220970672119522
H 2.067067912007207 0.24249557756047335 -8.072064708597296
C 0.18334400636152814 6.1940862564160035 1.4321784290473971
O -0.7806291646342693 5.537571353014116 1.1628047768252128
O 1.147317177357325 6.8506011598178915 1.7015520812695817