146

C -5.3564454929577465 1.0091607042253532 -0.0734429577464788
C -4.079135492957747 0.16955070422535368 -0.19788295774647868
C -4.333545492957747 -1.2789292957746463 0.3017270422535212
C -3.1403854929577464 -2.1745492957746464 0.7330270422535212
C -2.905235492957746 0.902300704225353 0.41966704225352136
C -2.7423854929577463 1.056130704225354 1.8024770422535212
C -1.8861754929577463 1.3499307042253532 -0.4326129577464788
C -1.5304554929577463 1.5279207042253526 2.3254170422535214
H -3.5237954929577464 0.7301007042253529 2.484817042253521
C -0.6776454929577462 1.8010507042253527 0.08546704225352131
H -1.9759254929577463 1.2426607042253535 -1.5115229577464788
C -0.4680254929577463 1.8513207042253539 1.4698070422535212
H -1.3950654929577464 1.5446707042253527 3.404047042253521
H 0.1461845070422536 1.9972507042253538 -0.6030529577464789
C -1.8679654929577463 -2.0866092957746467 -0.08765295774647863
C -0.6628654929577462 -1.814079295774647 0.5787970422535212
C -1.8438954929577462 -2.213429295774647 -1.4808029577464787
C 0.5129345070422537 -1.5763292957746469 -0.13022295774647863
H -0.6401854929577462 -1.7032692957746463 1.6609470422535213
C -0.6547954929577462 -1.9962392957746466 -2.1933129577464787
H -2.7578654929577464 -2.4351492957746466 -2.026182957746479
C 0.5308845070422537 -1.645769295774647 -1.5261029577464789
H 1.4044045070422537 -1.2610992957746463 0.41551704225352126
H -0.6795654929577464 -2.0467992957746466 -3.2793129577464786
C 1.7843245070422535 -1.2521692957746469 -2.2771629577464787
H 1.4981245070422535 -0.9384492957746469 -3.290282957746479
H 2.241984507042254 -0.38631929577464685 -1.8135029577464787
C 0.9385645070422537 2.0647807042253534 1.9815670422535212
H 1.0508945070422537 1.5807407042253532 2.9609770422535213
H 1.6053245070422537 1.5496207042253536 1.3096170422535214
C 3.9676945070422533 -1.6881692957746468 -3.314052957746479
H 4.795084507042254 -2.398849295774647 -3.4044129577464783
H 3.548404507042253 -1.4816192957746468 -4.303802957746479
H 4.307714507042253 -0.7637192957746466 -2.851282957746479
C 2.344694507042253 -3.565079295774647 -3.101282957746479
H 1.6334345070422536 -4.047909295774646 -2.4251929577464786
H 1.8561845070422536 -3.293109295774647 -4.041792957746479
H 3.1808045070422537 -4.243519295774647 -3.298122957746479
C 3.5156645070422536 -2.648489295774647 -1.1110629577464786
H 3.9311845070422535 -1.748249295774647 -0.6771029577464787
H 2.767184507042254 -3.1044092957746465 -0.45972295774647876
H 4.319224507042254 -3.371819295774647 -1.2863129577464787
C 2.963994507042253 3.381090704225353 2.401027042253521
H 3.3337945070422537 4.369820704225353 2.6912870422535216
H 3.120994507042253 2.671350704225353 3.2183370422535216
H 3.4665445070422534 3.0664207042253535 1.4881370422535212
C 1.2973745070422538 4.282440704225354 0.8488370422535213
H 1.7592145070422538 3.7367207042253527 0.02653704225352116
H 0.23311450704225378 4.4484607042253534 0.6605570422535213
H 1.7921845070422535 5.251370704225354 0.9736770422535213
C 0.7724845070422537 4.194670704225353 3.2772470422535216
H -0.2956954929577462 4.278220704225354 3.057857042253521
H 0.9298945070422537 3.612620704225354 4.190337042253521
H 1.2046345070422537 5.193640704225353 3.3918370422535213
N 2.876084507042253 -2.324759295774647 -2.4576629577464786
N 1.4527845070422536 3.504690704225353 2.1388470422535213
C -3.593905492957746 -3.637819295774647 0.8297870422535213
H -2.8952554929577463 -1.8680692957746468 1.7595270422535212
H -5.022615492957747 -1.2402792957746467 1.1579970422535213
H -4.898275492957747 -1.7933092957746464 -0.48931295774647876
H -3.883675492957746 0.07871070422535364 -1.2758929577464788
H -3.8751654929577466 -4.038529295774646 -0.1505529577464788
H -4.4603554929577465 -3.7321892957746465 1.4932570422535212
H -2.7953554929577464 -4.271929295774647 1.2313670422535212
H -5.648775492957746 1.147700704225353 0.9733970422535213
H -6.189795492957747 0.5254307042253537 -0.5943629577464788
H -5.2178854929577465 2.002970704225354 -0.5139729577464787
C 3.6710445070422537 1.0263707042253536 -0.27764295774647874
O 2.7356545070422538 1.6631507042253526 -0.7327029577464788
O 3.650814507042253 0.3883007042253537 0.7790570422535212
O 4.756604507042254 0.8696707042253538 -0.8334829577464786
O -1.5164640850554503 5.961885971989228 -4.4275299393502205
H -1.575799181404421 5.642359903540294 -3.5146499938903437
H -2.399394436988764 5.796931078900432 -4.791103619889637
O 5.805055322713407 1.9735429137219282 9.282136395166987
H 5.061311669411264 1.4090072846046897 9.023076057542742
H 6.586744754831644 1.4357890267696944 9.085300592827998
O 6.592324050242464 6.279910836509567 0.6405377323234651
H 7.348943641943347 6.389834223926503 1.2358620130757103
H 6.532841778506125 7.129472820635838 0.17829511337047954
O 10.777716494121853 -4.566876711464688 2.219485500038785
H 10.309215730191005 -5.114749710182876 2.867026671217694
H 10.636962186563348 -5.026785447402151 1.3782755834233598
O 4.4604244225857395 7.758669775743645 -2.401163483548869
H 4.172913993991074 8.683841270484242 -2.4202112043773774
H 4.776150826878015 7.593088604706268 -3.3021971442578133
O -8.61158858912373 -5.107428509828768 1.4148350134773353
H -7.997706008689868 -5.791261353049585 1.7222243055361164
H -8.21104580074056 -4.785467099481117 0.5933313499303084
O -0.4036632050152269 8.578510536182437 -3.1180039144632072
H 0.523825489487355 8.590249071190728 -3.3983506377644734
H -0.37916855393972276 8.157500703499313 -2.2455861950461737
O -1.3754576678153623 1.233378047144147 -7.520167215676719
H -0.8833843327143307 1.2497619383086493 -8.354770569308167
H -1.1772987442115315 0.3606118734662742 -7.148718442115875
O 1.847961723774263 5.260949869250307 -4.9588534058049545
H 1.394828943038525 6.038392757126787 -5.318326069595928
H 2.737094726210742 5.3108277957982 -5.3408437731201195
O 7.736869770450716 -6.022004489039382 -8.024808641762203
H 8.548986244117131 -6.512574650060391 -7.82789468284753
H 7.031421213338201 -6.671473979611067 -7.885188949797103
O -8.665062494068822 -9.05255694011114 3.8975135384379778
H -8.709356249875908 -9.060917575841222 4.865467834810844
H -7.85409238308052 -8.558526829621767 3.704579162772367
O 4.312781698766395 -3.780567720637042 0.6990851202798911
H 4.992026605682533 -4.121125843107617 1.3004285151449264
H 3.9223987363038573 -3.037715684104783 1.1835786070667087
O 3.6032006751589516 7.645499269728038 -8.413398006331247
H 4.282689167018353 7.145307641677895 -7.936878246448003
H 2.7826539957763456 7.167167421461587 -8.22139869855078
O 4.400607877118377 5.681852523179398 -1.6413501901389311
H 4.15809155233206 5.135921156993283 -2.4043129235186815
H 3.8098860728647734 6.447405893300501 -1.7041015389338972
O 7.554503874445819 -2.2420558812740743 8.32549185804776
H 7.590692850119221 -2.268160333283425 9.293467205112448
H 6.981592298464689 -1.4846306726452116 8.133030631458242
O -1.5461413404710371 -0.051580161227454235 -3.05741704572479
H -1.947904761507671 0.28873208844389375 -2.243942348428944
H -2.0275803590284642 0.40368848073958086 -3.764459391947386
O -6.585787042607275 0.429270569767636 -4.888822083210503
H -6.688926315822728 0.13809499951332227 -5.807269923050993
H -7.201464551494919 1.173224277385561 -4.8085972100635335
O -1.5026439874656663 -1.9097326004827253 4.745605544725169
H -0.9998509346176633 -2.7150625047311236 4.93953916282954
H -1.7328905424427508 -1.9975316670914798 3.808461056333003
O -4.484275274138024 -3.1423508259498614 10.166468043618815
H -3.5796084718893324 -3.141531190246497 9.819272620252603
H -4.416622570663233 -2.648041724818423 10.99715665468266
O -4.940836619253763 -5.422122366058681 7.91485092970213
H -4.408122116600064 -5.2581339883107905 8.70749866200573
H -4.4432591307131295 -6.101015554596563 7.434764868922957
O 6.781780745207903 10.54594779429162 -5.3690182687994445
H 6.714430158504602 11.447314114121319 -5.0197762139901965
H 6.339873849811478 10.002021073223887 -4.699821763870142
O 9.674423455648014 -6.837965066006226 -5.103295507845166
H 10.023962352470313 -7.181084463489877 -5.939392987555937
H 10.238560352925292 -7.245409626064873 -4.428980717922106
O -7.961307692228369 7.166779099760908 -3.2616521700587904
H -7.6124993668637435 6.8162754444162745 -2.428317125406055
H -8.252409743244716 6.378177521593652 -3.743657451260343
O 5.775460431636567 -9.82363650918323 1.9803790996566328
H 5.674344154078051 -10.243539351981262 2.8478031354792757
H 6.465986336982 -10.346721130501518 1.546192046317668
C -3.107560638459376 11.648012183575243 0.5699969260453008
O -3.4504401347634084 11.456333012905533 1.7007095349100227
O -2.7646811421553417 11.839691354244954 -0.5607156828194206