146

C -5.3564454929577465 1.0091607042253532 -0.0734429577464788
C -4.079135492957747 0.16955070422535368 -0.19788295774647868
C -4.333545492957747 -1.2789292957746463 0.3017270422535212
C -3.1403854929577464 -2.1745492957746464 0.7330270422535212
C -2.905235492957746 0.902300704225353 0.41966704225352136
C -2.7423854929577463 1.056130704225354 1.8024770422535212
C -1.8861754929577463 1.3499307042253532 -0.4326129577464788
C -1.5304554929577463 1.5279207042253526 2.3254170422535214
H -3.5237954929577464 0.7301007042253529 2.484817042253521
C -0.6776454929577462 1.8010507042253527 0.08546704225352131
H -1.9759254929577463 1.2426607042253535 -1.5115229577464788
C -0.4680254929577463 1.8513207042253539 1.4698070422535212
H -1.3950654929577464 1.5446707042253527 3.404047042253521
H 0.1461845070422536 1.9972507042253538 -0.6030529577464789
C -1.8679654929577463 -2.0866092957746467 -0.08765295774647863
C -0.6628654929577462 -1.814079295774647 0.5787970422535212
C -1.8438954929577462 -2.213429295774647 -1.4808029577464787
C 0.5129345070422537 -1.5763292957746469 -0.13022295774647863
H -0.6401854929577462 -1.7032692957746463 1.6609470422535213
C -0.6547954929577462 -1.9962392957746466 -2.1933129577464787
H -2.7578654929577464 -2.4351492957746466 -2.026182957746479
C 0.5308845070422537 -1.645769295774647 -1.5261029577464789
H 1.4044045070422537 -1.2610992957746463 0.41551704225352126
H -0.6795654929577464 -2.0467992957746466 -3.2793129577464786
C 1.7843245070422535 -1.2521692957746469 -2.2771629577464787
H 1.4981245070422535 -0.9384492957746469 -3.290282957746479
H 2.241984507042254 -0.38631929577464685 -1.8135029577464787
C 0.9385645070422537 2.0647807042253534 1.9815670422535212
H 1.0508945070422537 1.5807407042253532 2.9609770422535213
H 1.6053245070422537 1.5496207042253536 1.3096170422535214
C 3.9676945070422533 -1.6881692957746468 -3.314052957746479
H 4.795084507042254 -2.398849295774647 -3.4044129577464783
H 3.548404507042253 -1.4816192957746468 -4.303802957746479
H 4.307714507042253 -0.7637192957746466 -2.851282957746479
C 2.344694507042253 -3.565079295774647 -3.101282957746479
H 1.6334345070422536 -4.047909295774646 -2.4251929577464786
H 1.8561845070422536 -3.293109295774647 -4.041792957746479
H 3.1808045070422537 -4.243519295774647 -3.298122957746479
C 3.5156645070422536 -2.648489295774647 -1.1110629577464786
H 3.9311845070422535 -1.748249295774647 -0.6771029577464787
H 2.767184507042254 -3.1044092957746465 -0.45972295774647876
H 4.319224507042254 -3.371819295774647 -1.2863129577464787
C 2.963994507042253 3.381090704225353 2.401027042253521
H 3.3337945070422537 4.369820704225353 2.6912870422535216
H 3.120994507042253 2.671350704225353 3.2183370422535216
H 3.4665445070422534 3.0664207042253535 1.4881370422535212
C 1.2973745070422538 4.282440704225354 0.8488370422535213
H 1.7592145070422538 3.7367207042253527 0.02653704225352116
H 0.23311450704225378 4.4484607042253534 0.6605570422535213
H 1.7921845070422535 5.251370704225354 0.9736770422535213
C 0.7724845070422537 4.194670704225353 3.2772470422535216
H -0.2956954929577462 4.278220704225354 3.057857042253521
H 0.9298945070422537 3.612620704225354 4.190337042253521
H 1.2046345070422537 5.193640704225353 3.3918370422535213
N 2.876084507042253 -2.324759295774647 -2.4576629577464786
N 1.4527845070422536 3.504690704225353 2.1388470422535213
C -3.593905492957746 -3.637819295774647 0.8297870422535213
H -2.8952554929577463 -1.8680692957746468 1.7595270422535212
H -5.022615492957747 -1.2402792957746467 1.1579970422535213
H -4.898275492957747 -1.7933092957746464 -0.48931295774647876
H -3.883675492957746 0.07871070422535364 -1.2758929577464788
H -3.8751654929577466 -4.038529295774646 -0.1505529577464788
H -4.4603554929577465 -3.7321892957746465 1.4932570422535212
H -2.7953554929577464 -4.271929295774647 1.2313670422535212
H -5.648775492957746 1.147700704225353 0.9733970422535213
H -6.189795492957747 0.5254307042253537 -0.5943629577464788
H -5.2178854929577465 2.002970704225354 -0.5139729577464787
C 3.6710445070422537 1.0263707042253536 -0.27764295774647874
O 2.7356545070422538 1.6631507042253526 -0.7327029577464788
O 3.650814507042253 0.3883007042253537 0.7790570422535212
O 4.756604507042254 0.8696707042253538 -0.8334829577464786
O -4.605556227544946 -10.978486407314213 -1.8303004004014078
H -4.8181486950675 -10.983896360633272 -2.775679970763365
H -5.359211862831894 -10.525180751524049 -1.4235091638575534
O -0.029665732901762887 -5.657815834748557 2.818447135858995
H 0.2797604963529494 -5.959245937971427 1.9510587231970198
H 0.11689519740540044 -6.420904277105436 3.3973926144222624
O 2.887105144782629 6.892256947352893 -4.343483251274781
H 2.118245532512136 7.35654637444323 -4.707155605752538
H 2.6835519402998624 5.955559223311802 -4.485347309517296
O 13.134993605957 -3.0071826876387835 8.057691922531077
H 13.318897079955018 -3.2358982207224685 8.9811831645457
H 12.900094219406808 -3.8538831985908066 7.649179416906187
O -4.56224798408887 -6.154651485394976 4.341019669658136
H -4.673796226717135 -6.285580994909893 5.294634796428225
H -3.8061070203582905 -5.552351693408881 4.27432823211106
O -4.52161247184507 3.3744153313143754 1.3062433897709558
H -4.029089522006437 4.022052230745532 1.8325084819796742
H -3.831045381015907 2.862002826570884 0.8595752105302051
O -6.054284451638295 11.175642773397254 10.143917208276099
H -6.665768914991902 10.991102046541599 10.872613872265127
H -6.044503900354331 10.352671249291099 9.632464223509192
O 4.2273064180438045 2.013883521142851 6.4331474828466435
H 4.83558914190198 2.2083484515006067 5.704351986416655
H 4.363776385994464 2.7456526100151137 7.053511805417344
O -3.665375270802315 7.0384428235923675 7.356989701057111
H -4.10018641877223 7.453252461692962 6.596832094609646
H -2.772841585382993 7.415677085685187 7.350674940959449
O -1.3864417153714381 9.099596789808263 2.948981982992435
H -2.05506607971553 8.959960679054966 2.261660680485992
H -1.2888682323861043 8.2280497689625 3.3611071462292617
O 1.0405519079307024 -6.71416787023046 -2.6442967775957777
H 1.0304343171927386 -6.712673510506929 -3.6132460838789684
H 1.1411633680429614 -5.77935946052805 -2.40983459398458
O 2.2954634436081456 -3.3747898181385 8.045132871473466
H 2.709657388097386 -3.5050930499117072 7.178858203115963
H 2.623196587674199 -4.1167638944204485 8.575253047194149
O -8.928501093246181 -4.0387545290952165 6.839489431418998
H -9.00634025536046 -4.043294024159339 7.8053506091903735
H -7.9736066364941856 -4.085107739636341 6.681407488627158
O -0.9859970126587436 7.417155550332936 6.489103045093792
H -1.6857904456094044 7.565796153023605 5.835526363035072
H -0.55318253051336 6.604221938466917 6.187818277732924
O 1.2334562544863528 -12.248812833981917 0.31777148017229107
H 1.5770074540821764 -11.72074754324686 -0.41849408256792775
H 0.41276388957661103 -11.797622232483269 0.5664741693377773
O 6.837528934103066 -3.4384803838148343 0.8212505564906765
H 7.138677283164721 -3.503668143576825 1.739960295600181
H 7.57052660674954 -2.998222795784417 0.3653452896023759
O 1.4975184332588303 -1.8658617899146541 -8.138657790906253
H 0.7640301200810851 -1.2377099149239588 -8.218579460541843
H 1.6230944704207266 -2.1951378870651297 -9.041303820663247
O 0.8648962531302775 -4.988503333758826 -11.529172881487591
H 1.2681756160261122 -4.28601488661686 -12.061002829868087
H -0.07181414277443743 -4.960193626442512 -11.775615854557826
O -4.629154607716226 -10.98217379546849 -8.454646041753684
H -4.536421619483701 -11.267869206791106 -9.375920203848045
H -3.7802571268520744 -11.216456934924778 -8.050360966776877
O -6.867009875077134 -0.19975350799576885 13.36026257721877
H -7.7684180032630445 0.0656293483748902 13.596911437103877
H -6.9889770034361085 -0.796882604404924 12.606921481750422
O -3.408781735546246 9.125844412599776 -1.049380168373103
H -3.8994134436805608 9.820828564206648 -1.5133251143402753
H -3.0256906403623387 8.59368014858728 -1.7628255784773608
O 5.647513190541705 3.873341130700627 1.0140206190674301
H 6.463254711836767 3.573326528870048 0.5856231797384144
H 5.537322913315671 4.7823664656755716 0.6970143297314937
O 8.270519380932857 -9.22093797674253 5.101393167306965
H 9.005911509916949 -8.924600920184428 5.658483934093427
H 7.936328104727889 -8.404258314099595 4.701002778019317
O 3.859965432698332 -4.983228766486409 0.7704754028552177
H 3.023603092678063 -5.464192103489011 0.6802553299493393
H 4.38225836849087 -5.27706294748818 0.00900740773248826
C 4.968450821154427 -13.372457023472705 4.493114465784968
O 4.254719038256349 -13.555282297575996 5.436502041773853
O 5.682182604052508 -13.189631749369415 3.549726889796084