146

C -5.3564454929577465 1.0091607042253532 -0.0734429577464788
C -4.079135492957747 0.16955070422535368 -0.19788295774647868
C -4.333545492957747 -1.2789292957746463 0.3017270422535212
C -3.1403854929577464 -2.1745492957746464 0.7330270422535212
C -2.905235492957746 0.902300704225353 0.41966704225352136
C -2.7423854929577463 1.056130704225354 1.8024770422535212
C -1.8861754929577463 1.3499307042253532 -0.4326129577464788
C -1.5304554929577463 1.5279207042253526 2.3254170422535214
H -3.5237954929577464 0.7301007042253529 2.484817042253521
C -0.6776454929577462 1.8010507042253527 0.08546704225352131
H -1.9759254929577463 1.2426607042253535 -1.5115229577464788
C -0.4680254929577463 1.8513207042253539 1.4698070422535212
H -1.3950654929577464 1.5446707042253527 3.404047042253521
H 0.1461845070422536 1.9972507042253538 -0.6030529577464789
C -1.8679654929577463 -2.0866092957746467 -0.08765295774647863
C -0.6628654929577462 -1.814079295774647 0.5787970422535212
C -1.8438954929577462 -2.213429295774647 -1.4808029577464787
C 0.5129345070422537 -1.5763292957746469 -0.13022295774647863
H -0.6401854929577462 -1.7032692957746463 1.6609470422535213
C -0.6547954929577462 -1.9962392957746466 -2.1933129577464787
H -2.7578654929577464 -2.4351492957746466 -2.026182957746479
C 0.5308845070422537 -1.645769295774647 -1.5261029577464789
H 1.4044045070422537 -1.2610992957746463 0.41551704225352126
H -0.6795654929577464 -2.0467992957746466 -3.2793129577464786
C 1.7843245070422535 -1.2521692957746469 -2.2771629577464787
H 1.4981245070422535 -0.9384492957746469 -3.290282957746479
H 2.241984507042254 -0.38631929577464685 -1.8135029577464787
C 0.9385645070422537 2.0647807042253534 1.9815670422535212
H 1.0508945070422537 1.5807407042253532 2.9609770422535213
H 1.6053245070422537 1.5496207042253536 1.3096170422535214
C 3.9676945070422533 -1.6881692957746468 -3.314052957746479
H 4.795084507042254 -2.398849295774647 -3.4044129577464783
H 3.548404507042253 -1.4816192957746468 -4.303802957746479
H 4.307714507042253 -0.7637192957746466 -2.851282957746479
C 2.344694507042253 -3.565079295774647 -3.101282957746479
H 1.6334345070422536 -4.047909295774646 -2.4251929577464786
H 1.8561845070422536 -3.293109295774647 -4.041792957746479
H 3.1808045070422537 -4.243519295774647 -3.298122957746479
C 3.5156645070422536 -2.648489295774647 -1.1110629577464786
H 3.9311845070422535 -1.748249295774647 -0.6771029577464787
H 2.767184507042254 -3.1044092957746465 -0.45972295774647876
H 4.319224507042254 -3.371819295774647 -1.2863129577464787
C 2.963994507042253 3.381090704225353 2.401027042253521
H 3.3337945070422537 4.369820704225353 2.6912870422535216
H 3.120994507042253 2.671350704225353 3.2183370422535216
H 3.4665445070422534 3.0664207042253535 1.4881370422535212
C 1.2973745070422538 4.282440704225354 0.8488370422535213
H 1.7592145070422538 3.7367207042253527 0.02653704225352116
H 0.23311450704225378 4.4484607042253534 0.6605570422535213
H 1.7921845070422535 5.251370704225354 0.9736770422535213
C 0.7724845070422537 4.194670704225353 3.2772470422535216
H -0.2956954929577462 4.278220704225354 3.057857042253521
H 0.9298945070422537 3.612620704225354 4.190337042253521
H 1.2046345070422537 5.193640704225353 3.3918370422535213
N 2.876084507042253 -2.324759295774647 -2.4576629577464786
N 1.4527845070422536 3.504690704225353 2.1388470422535213
C -3.593905492957746 -3.637819295774647 0.8297870422535213
H -2.8952554929577463 -1.8680692957746468 1.7595270422535212
H -5.022615492957747 -1.2402792957746467 1.1579970422535213
H -4.898275492957747 -1.7933092957746464 -0.48931295774647876
H -3.883675492957746 0.07871070422535364 -1.2758929577464788
H -3.8751654929577466 -4.038529295774646 -0.1505529577464788
H -4.4603554929577465 -3.7321892957746465 1.4932570422535212
H -2.7953554929577464 -4.271929295774647 1.2313670422535212
H -5.648775492957746 1.147700704225353 0.9733970422535213
H -6.189795492957747 0.5254307042253537 -0.5943629577464788
H -5.2178854929577465 2.002970704225354 -0.5139729577464787
C 3.6710445070422537 1.0263707042253536 -0.27764295774647874
O 2.7356545070422538 1.6631507042253526 -0.7327029577464788
O 3.650814507042253 0.3883007042253537 0.7790570422535212
O 4.756604507042254 0.8696707042253538 -0.8334829577464786
O -10.243472277875487 -0.5190137344546222 -6.99293027829514
H -11.139154968486222 -0.15245766674408667 -7.041474318762559
H -9.72480443535504 0.18492350021420512 -6.5752964876579485
O 6.004530837499294 -1.2394893169758672 1.02752370504064
H 6.473500288644665 -1.2567976649641106 0.17974104900058552
H 5.987395207476583 -2.1678960873269952 1.3045240358164576
O -6.362384295125815 -3.243707369191756 9.48364723064885
H -6.996252414052023 -3.741699691685097 10.021403877699019
H -6.547144987837221 -2.3177822660310694 9.701564953805256
O -7.621736911118065 10.631335485545115 -8.08102368606902
H -8.003806841553153 10.629315060165176 -8.971521211634709
H -7.130307429841794 9.797448639021194 -8.035288180967125
O 3.62774768920568 -6.473484312197661 -5.9409864279293805
H 3.632938827052657 -6.504897533736106 -4.972506372120057
H 4.136774845600234 -7.255193180831608 -6.203254502715292
O 1.3725449150673668 -6.916829360511016 -6.0995422057201765
H 1.8451395169789522 -6.7626318234842815 -6.931314301139902
H 0.5388249916010639 -6.435829315366604 -6.211399213039411
O -2.519880159891171 9.228673761754681 3.3313106644600654
H -2.5878374045739325 9.858894503689719 4.064230159513907
H -2.035783874230961 8.479857609775848 3.7106351970777203
O 10.660103142987884 7.335131965473741 3.7197196240478805
H 10.320769787755466 6.574160720791609 4.214434689205229
H 9.960190628361104 7.528064573740198 3.077955317751311
O -1.0223338284387475 6.6375936815242955 10.467801154023954
H -0.7020363938235272 7.532959229495372 10.281528649919444
H -1.8855243651295117 6.601776775300248 10.028960418795275
O 9.109343132949663 -9.501534644196841 0.10286080288282928
H 9.393840114091775 -8.581181816147557 -0.001922289850274872
H 8.637205472694497 -9.505680062985512 0.9490468282766793
O 4.246305729137679 8.206793043359788 -4.816354847385396
H 4.4421971698316804 8.224499871719486 -5.765185901152225
H 3.2923086355011706 8.041471543966209 -4.77736393214411
O 9.184351353987381 5.221544736660195 -3.787416319845705
H 9.315790348604692 4.677114579473937 -4.57816719815071
H 8.400674076501044 4.837421815202826 -3.3663920328233785
O -7.152674136973863 -13.819631476359246 4.617878002649598
H -7.086389851626308 -14.401969350409752 5.389536185307116
H -7.896287123543347 -14.182789454309516 4.113776868395486
O -3.5344218789107273 -2.0376833684837394 -5.028237848053433
H -3.076106301210875 -2.044611915604935 -5.881974448752056
H -3.41569082696386 -1.1315087101274468 -4.706193798028524
O -7.809965221592879 1.1957679282172968 7.678241152504184
H -7.790255560012442 1.2541994454594179 8.645280264398409
H -6.8927162589442945 1.3638320782965307 7.414857921682176
O 8.228466165990028 1.4647098200089828 6.069347544707996
H 7.522104533132795 2.03097509758225 6.414838841186119
H 8.226597135069524 0.6993013900907845 6.663576781983962
O -4.2337846372842955 -5.860851749566105 11.707717324276256
H -4.4129127170497755 -6.774194729710251 11.977319046379334
H -3.471305073442836 -5.937141920316638 11.114618117675041
O -10.327363575053244 5.644010638963943 6.995633971619581
H -10.218075044628044 5.071597761579968 7.769821850511069
H -11.102331721486319 5.279321872405589 6.542435979721745
O -8.243078625587708 -6.894345417936024 -5.13992708224386
H -8.129583904420594 -6.805391779046972 -4.181713350712322
H -8.522115570276414 -7.814741534651276 -5.258127404300431
O -2.3594681498965038 2.4614380370469187 -6.312939620829788
H -3.1077113874783877 2.487987592406218 -5.697801802594552
H -1.8592184538904246 3.265584913377321 -6.107854303866625
O 4.219422793985455 7.534631920314526 8.018829415240365
H 4.489091894193426 8.459822806407475 8.120159359400867
H 3.7223126104870836 7.345668492854064 8.82885178088505
O 1.1830700632555626 -2.675840215688582 5.16603096930316
H 1.8062288155627677 -2.4168712692184746 5.8614269795642855
H 0.8827427007493565 -1.8325818026210325 4.794977511670891
O 3.313288562936124 2.7431572280807437 -9.535792630433857
H 4.058604095601028 2.1250225371310645 -9.498622514574791
H 3.461730012367785 3.239825718341609 -10.354479072957867
O 8.910412579865424 -6.366643736203686 -6.106993343300806
H 8.827053222498268 -6.073815643820032 -5.187063844507399
H 7.999365497251457 -6.363592934980282 -6.437062805948401
C -8.611011186050215 -7.330738611141159 9.81644117425652
O -8.490813252099429 -7.450721414937941 8.631546731376892
O -8.731209120001001 -7.210755807344378 11.00133561713615