146

C -5.3564454929577465 1.0091607042253532 -0.0734429577464788
C -4.079135492957747 0.16955070422535368 -0.19788295774647868
C -4.333545492957747 -1.2789292957746463 0.3017270422535212
C -3.1403854929577464 -2.1745492957746464 0.7330270422535212
C -2.905235492957746 0.902300704225353 0.41966704225352136
C -2.7423854929577463 1.056130704225354 1.8024770422535212
C -1.8861754929577463 1.3499307042253532 -0.4326129577464788
C -1.5304554929577463 1.5279207042253526 2.3254170422535214
H -3.5237954929577464 0.7301007042253529 2.484817042253521
C -0.6776454929577462 1.8010507042253527 0.08546704225352131
H -1.9759254929577463 1.2426607042253535 -1.5115229577464788
C -0.4680254929577463 1.8513207042253539 1.4698070422535212
H -1.3950654929577464 1.5446707042253527 3.404047042253521
H 0.1461845070422536 1.9972507042253538 -0.6030529577464789
C -1.8679654929577463 -2.0866092957746467 -0.08765295774647863
C -0.6628654929577462 -1.814079295774647 0.5787970422535212
C -1.8438954929577462 -2.213429295774647 -1.4808029577464787
C 0.5129345070422537 -1.5763292957746469 -0.13022295774647863
H -0.6401854929577462 -1.7032692957746463 1.6609470422535213
C -0.6547954929577462 -1.9962392957746466 -2.1933129577464787
H -2.7578654929577464 -2.4351492957746466 -2.026182957746479
C 0.5308845070422537 -1.645769295774647 -1.5261029577464789
H 1.4044045070422537 -1.2610992957746463 0.41551704225352126
H -0.6795654929577464 -2.0467992957746466 -3.2793129577464786
C 1.7843245070422535 -1.2521692957746469 -2.2771629577464787
H 1.4981245070422535 -0.9384492957746469 -3.290282957746479
H 2.241984507042254 -0.38631929577464685 -1.8135029577464787
C 0.9385645070422537 2.0647807042253534 1.9815670422535212
H 1.0508945070422537 1.5807407042253532 2.9609770422535213
H 1.6053245070422537 1.5496207042253536 1.3096170422535214
C 3.9676945070422533 -1.6881692957746468 -3.314052957746479
H 4.795084507042254 -2.398849295774647 -3.4044129577464783
H 3.548404507042253 -1.4816192957746468 -4.303802957746479
H 4.307714507042253 -0.7637192957746466 -2.851282957746479
C 2.344694507042253 -3.565079295774647 -3.101282957746479
H 1.6334345070422536 -4.047909295774646 -2.4251929577464786
H 1.8561845070422536 -3.293109295774647 -4.041792957746479
H 3.1808045070422537 -4.243519295774647 -3.298122957746479
C 3.5156645070422536 -2.648489295774647 -1.1110629577464786
H 3.9311845070422535 -1.748249295774647 -0.6771029577464787
H 2.767184507042254 -3.1044092957746465 -0.45972295774647876
H 4.319224507042254 -3.371819295774647 -1.2863129577464787
C 2.963994507042253 3.381090704225353 2.401027042253521
H 3.3337945070422537 4.369820704225353 2.6912870422535216
H 3.120994507042253 2.671350704225353 3.2183370422535216
H 3.4665445070422534 3.0664207042253535 1.4881370422535212
C 1.2973745070422538 4.282440704225354 0.8488370422535213
H 1.7592145070422538 3.7367207042253527 0.02653704225352116
H 0.23311450704225378 4.4484607042253534 0.6605570422535213
H 1.7921845070422535 5.251370704225354 0.9736770422535213
C 0.7724845070422537 4.194670704225353 3.2772470422535216
H -0.2956954929577462 4.278220704225354 3.057857042253521
H 0.9298945070422537 3.612620704225354 4.190337042253521
H 1.2046345070422537 5.193640704225353 3.3918370422535213
N 2.876084507042253 -2.324759295774647 -2.4576629577464786
N 1.4527845070422536 3.504690704225353 2.1388470422535213
C -3.593905492957746 -3.637819295774647 0.8297870422535213
H -2.8952554929577463 -1.8680692957746468 1.7595270422535212
H -5.022615492957747 -1.2402792957746467 1.1579970422535213
H -4.898275492957747 -1.7933092957746464 -0.48931295774647876
H -3.883675492957746 0.07871070422535364 -1.2758929577464788
H -3.8751654929577466 -4.038529295774646 -0.1505529577464788
H -4.4603554929577465 -3.7321892957746465 1.4932570422535212
H -2.7953554929577464 -4.271929295774647 1.2313670422535212
H -5.648775492957746 1.147700704225353 0.9733970422535213
H -6.189795492957747 0.5254307042253537 -0.5943629577464788
H -5.2178854929577465 2.002970704225354 -0.5139729577464787
C 3.6710445070422537 1.0263707042253536 -0.27764295774647874
O 2.7356545070422538 1.6631507042253526 -0.7327029577464788
O 3.650814507042253 0.3883007042253537 0.7790570422535212
O 4.756604507042254 0.8696707042253538 -0.8334829577464786
O 3.5910810146901815 2.5561892870871237 -8.406914707369554
H 3.7318247883892006 2.819373518748044 -7.485018505365222
H 4.420750045285023 2.7939360804023234 -8.847468570410333
O 4.903091133669037 -10.229999117875726 -5.628944722024367
H 4.966786530829041 -10.377675452963075 -6.584508405582819
H 5.37495679879774 -10.983575020445272 -5.243681049406327
O 9.189661607449635 -3.6580630889764123 -0.8785276314205048
H 8.73934253590405 -4.014470929441776 -1.6590105216603483
H 9.283587361922287 -2.7135285938546705 -1.0734493707721207
O 7.439237720567131 10.765074715538391 3.5680448511329472
H 7.813633231363088 11.630288781258333 3.343991333248938
H 6.616929647593018 10.726402423505895 3.0568933752957395
O 7.29919985610588 -2.7140511891301813 9.103561040978287
H 7.793015731730851 -2.3765470383678147 8.341193553411482
H 6.63155550449111 -2.031910841661054 9.27058651930896
O -3.6484899652729803 1.7392733997313958 -11.906869231534241
H -4.094263330252688 2.3770141535077904 -11.329339842717198
H -2.7220973452022754 2.0233216949921546 -11.898196069596885
O -2.0800541167614472 3.939609813890899 1.026136406859696
H -1.979612217058 3.9383826540390894 0.06235361195066584
H -2.228734253921595 3.007940579771333 1.2471535991979847
O 4.1533524254983085 -6.411579535995191 3.9295814258880153
H 3.2734431289925583 -6.050139310626484 3.744952202014397
H 4.141261695150133 -6.581214263536977 4.883541497249218
O 4.2458999142864995 -8.367995679726784 -8.09435927637968
H 4.854866004145425 -7.6142541924108 -8.095554517200506
H 3.867452306644072 -8.364556056438527 -8.98639488192542
O -3.8840211251201335 -8.021963298717711 -11.910199639464278
H -4.085988168364953 -7.845167606756121 -12.841285002708041
H -4.646790675293325 -7.662373873851324 -11.43287375167602
O 1.059601994783156 13.221953968000218 -9.656236494244853
H 1.1550754719043228 13.277957384640388 -8.693575707990929
H 0.7038291138394062 12.332962282658348 -9.804834559097682
O 10.367807093049166 4.210520454129635 4.317086391914398
H 9.836998145821905 4.3806712220605935 3.5244591563137053
H 9.77295975649384 3.7078747456676737 4.893684937054608
O -0.3024073895007433 6.504737111004167 -7.66040578732003
H -0.46428884039368734 7.394686124450941 -8.007900400547214
H 0.1828506726627121 6.659995794931063 -6.8361598904720955
O 4.277588715546519 -9.160835176010396 -4.448711678396948
H 3.3594227792778497 -9.187492646547541 -4.757302102163534
H 4.198967314026569 -9.046500731063144 -3.4896974687933353
O -8.064057742391102 6.442987502472554 -2.079178579086077
H -7.914227249801917 6.302130117562784 -1.1322480760887
H -7.3187722670007425 6.997916209613631 -2.3540706205549005
O -4.290048426238714 9.387377893847518 -0.4822793534999642
H -4.596596214459175 9.541745856757432 -1.3884616433645303
H -4.983467598571027 9.779549967457067 0.06938436691561445
O -10.45045737034823 -1.13167440892202 -2.4747577665947853
H -10.148157056200818 -0.752718122594402 -3.313789357191443
H -9.725874638532956 -0.9449823376987214 -1.8590566381262177
O 1.7557731849836027 7.098527540777467 -8.4635719278566
H 1.4280420324384577 7.325872021897298 -7.580467100865045
H 1.764995167146865 7.945114916210133 -8.934917570780145
O 1.5777502389186417 -0.978671287841947 3.728906703796917
H 1.0948924782435758 -1.786929634958911 3.95811007238389
H 2.2983045909127067 -1.2896989600668465 3.1605536821345237
O -5.479328930692066 3.561298495396483 5.2659481754046045
H -6.048395443940107 4.198495057131543 5.723234958630116
H -5.936676235110763 2.7147283496109758 5.38046619016934
O 2.9521437892837468 -5.5544859163440385 -0.3727709700736576
H 2.7572987798658035 -5.98808586481845 -1.2171606099247811
H 3.421511097829857 -6.232725966152006 0.1358022388202702
O 7.048204905347976 -7.91223239193095 -7.135457913095729
H 6.182082205780494 -8.097292146504842 -6.742327256149482
H 7.016827165450581 -8.36195617506122 -7.993202572435518
O -4.554627013590017 2.089505208045853 -5.498356379803374
H -3.888954768134068 1.4270163111452994 -5.7370115285287335
H -4.033921668317592 2.878862376737046 -5.286830617919517
O 7.325901685232253 -6.401879704346451 -0.7448351823439157
H 6.668635011665986 -6.265389976245247 -0.04602302529311375
H 6.944495665354085 -5.954988736374744 -1.5154063049834834
C -5.501947905411803 -4.638174563274841 -5.231502399550944
O -6.524645644950868 -4.552881313400153 -5.847645769528665
O -4.479250165872738 -4.723467813149529 -4.6153590295732245