146

C -5.3564454929577465 1.0091607042253532 -0.0734429577464788
C -4.079135492957747 0.16955070422535368 -0.19788295774647868
C -4.333545492957747 -1.2789292957746463 0.3017270422535212
C -3.1403854929577464 -2.1745492957746464 0.7330270422535212
C -2.905235492957746 0.902300704225353 0.41966704225352136
C -2.7423854929577463 1.056130704225354 1.8024770422535212
C -1.8861754929577463 1.3499307042253532 -0.4326129577464788
C -1.5304554929577463 1.5279207042253526 2.3254170422535214
H -3.5237954929577464 0.7301007042253529 2.484817042253521
C -0.6776454929577462 1.8010507042253527 0.08546704225352131
H -1.9759254929577463 1.2426607042253535 -1.5115229577464788
C -0.4680254929577463 1.8513207042253539 1.4698070422535212
H -1.3950654929577464 1.5446707042253527 3.404047042253521
H 0.1461845070422536 1.9972507042253538 -0.6030529577464789
C -1.8679654929577463 -2.0866092957746467 -0.08765295774647863
C -0.6628654929577462 -1.814079295774647 0.5787970422535212
C -1.8438954929577462 -2.213429295774647 -1.4808029577464787
C 0.5129345070422537 -1.5763292957746469 -0.13022295774647863
H -0.6401854929577462 -1.7032692957746463 1.6609470422535213
C -0.6547954929577462 -1.9962392957746466 -2.1933129577464787
H -2.7578654929577464 -2.4351492957746466 -2.026182957746479
C 0.5308845070422537 -1.645769295774647 -1.5261029577464789
H 1.4044045070422537 -1.2610992957746463 0.41551704225352126
H -0.6795654929577464 -2.0467992957746466 -3.2793129577464786
C 1.7843245070422535 -1.2521692957746469 -2.2771629577464787
H 1.4981245070422535 -0.9384492957746469 -3.290282957746479
H 2.241984507042254 -0.38631929577464685 -1.8135029577464787
C 0.9385645070422537 2.0647807042253534 1.9815670422535212
H 1.0508945070422537 1.5807407042253532 2.9609770422535213
H 1.6053245070422537 1.5496207042253536 1.3096170422535214
C 3.9676945070422533 -1.6881692957746468 -3.314052957746479
H 4.795084507042254 -2.398849295774647 -3.4044129577464783
H 3.548404507042253 -1.4816192957746468 -4.303802957746479
H 4.307714507042253 -0.7637192957746466 -2.851282957746479
C 2.344694507042253 -3.565079295774647 -3.101282957746479
H 1.6334345070422536 -4.047909295774646 -2.4251929577464786
H 1.8561845070422536 -3.293109295774647 -4.041792957746479
H 3.1808045070422537 -4.243519295774647 -3.298122957746479
C 3.5156645070422536 -2.648489295774647 -1.1110629577464786
H 3.9311845070422535 -1.748249295774647 -0.6771029577464787
H 2.767184507042254 -3.1044092957746465 -0.45972295774647876
H 4.319224507042254 -3.371819295774647 -1.2863129577464787
C 2.963994507042253 3.381090704225353 2.401027042253521
H 3.3337945070422537 4.369820704225353 2.6912870422535216
H 3.120994507042253 2.671350704225353 3.2183370422535216
H 3.4665445070422534 3.0664207042253535 1.4881370422535212
C 1.2973745070422538 4.282440704225354 0.8488370422535213
H 1.7592145070422538 3.7367207042253527 0.02653704225352116
H 0.23311450704225378 4.4484607042253534 0.6605570422535213
H 1.7921845070422535 5.251370704225354 0.9736770422535213
C 0.7724845070422537 4.194670704225353 3.2772470422535216
H -0.2956954929577462 4.278220704225354 3.057857042253521
H 0.9298945070422537 3.612620704225354 4.190337042253521
H 1.2046345070422537 5.193640704225353 3.3918370422535213
N 2.876084507042253 -2.324759295774647 -2.4576629577464786
N 1.4527845070422536 3.504690704225353 2.1388470422535213
C -3.593905492957746 -3.637819295774647 0.8297870422535213
H -2.8952554929577463 -1.8680692957746468 1.7595270422535212
H -5.022615492957747 -1.2402792957746467 1.1579970422535213
H -4.898275492957747 -1.7933092957746464 -0.48931295774647876
H -3.883675492957746 0.07871070422535364 -1.2758929577464788
H -3.8751654929577466 -4.038529295774646 -0.1505529577464788
H -4.4603554929577465 -3.7321892957746465 1.4932570422535212
H -2.7953554929577464 -4.271929295774647 1.2313670422535212
H -5.648775492957746 1.147700704225353 0.9733970422535213
H -6.189795492957747 0.5254307042253537 -0.5943629577464788
H -5.2178854929577465 2.002970704225354 -0.5139729577464787
C 3.6710445070422537 1.0263707042253536 -0.27764295774647874
O 2.7356545070422538 1.6631507042253526 -0.7327029577464788
O 3.650814507042253 0.3883007042253537 0.7790570422535212
O 4.756604507042254 0.8696707042253538 -0.8334829577464786
O -2.6277117244795987 -16.46671172683332 5.140062288695958
H -2.4640652665272773 -17.17665211937929 4.501179018660395
H -2.6594272932209853 -15.665257971047941 4.596345501814294
O -7.013109271007387 -1.31480308983256 -5.7830883995181885
H -6.760397983393953 -0.8550240331836192 -4.968405896281638
H -6.407772553727536 -2.070416302363678 -5.82281340500913
O 6.098085342143124 7.672213639712574 4.341319901433202
H 6.292383459787127 8.138725945292624 3.5145298028456686
H 6.972097100980562 7.447167121544178 4.694051321034815
O -7.491993962815057 -3.9546224699883323 -4.820813442036156
H -7.731541577598395 -3.120968374151744 -5.252791619316555
H -6.5264354012624874 -3.987850260624648 -4.895342110627248
O 6.911761829988672 5.66175344976099 9.80192185346087
H 6.370138188646178 6.245085474106556 10.354493059199827
H 7.4853654683700395 6.269807052913674 9.311807962585803
O 8.59510270147582 -1.18334616200453 11.591038092210862
H 9.06512385033171 -1.0577626492300798 10.753018845506219
H 8.598501533469854 -2.1437662878860575 11.719659917896816
O 2.644157777192606 -3.04955102906609 -12.494191903840633
H 3.3580513759793464 -3.13892846133636 -13.143295101423336
H 3.0215117357416434 -2.478346794909978 -11.808413763951716
O 4.773680181980706 5.0065545394176585 -5.564673144596471
H 4.8109744958601 4.793237764556852 -4.620177276624965
H 4.310012233049509 4.251544408051457 -5.957016972084973
O -9.79352456542595 -3.032291024009515 -2.036624036105522
H -9.81398805983049 -3.0298899792495604 -3.0054082418401205
H -10.557257620105108 -2.4915696419352598 -1.7850407448118735
O -5.15765141871199 8.431134469548763 -3.6649485563252133
H -5.576419380054403 8.170438490697455 -2.8308991824486545
H -5.46460835644142 7.765742620750354 -4.2989777908502536
O -0.45081128416798144 11.216293379546604 8.065113192223132
H -0.5368324252685364 12.120265396358601 7.726879082463911
H -1.2685014750156478 10.781118838598598 7.780564751703423
O -2.5568166650894644 -0.1957794641753039 -3.212290597289372
H -2.587985181982944 -0.1736974194926313 -2.2440404933610045
H -2.12184753581401 0.6364097780706884 -3.451507791419294
O 9.318555193016024 0.7462600072120562 -2.478162069568714
H 8.54065021121432 1.3165753745027868 -2.570744886657692
H 9.826039515089196 0.9094221408823913 -3.287359032789707
O -7.116087454797579 5.674565214038116 -5.239997497142198
H -7.581945695066583 6.392171511308661 -5.694953164203429
H -7.629567353739874 4.883681693151766 -5.463164685753387
O -7.461365631006477 9.485768680280732 -7.227603680489932
H -7.380142333146891 9.535066547999875 -6.263269789649647
H -6.552708000165234 9.597707378583566 -7.545051285672656
O 9.528871965020947 5.92926964764285 -6.206936228229981
H 9.744719184731244 5.808017232051175 -7.143779430882657
H 9.807690469904665 6.837896380577446 -6.0182045514213165
O -5.669432327488934 14.635714838002038 -2.5721047293660826
H -6.246165929527892 15.060361405553243 -3.2248075728148846
H -6.048640593272481 13.75038573048463 -2.4655429780485294
O 5.23634227709872 -9.091752678391261 -7.051193851465128
H 5.33201598226706 -8.978387875271988 -8.008775346928095
H 4.871576041590837 -8.245834924528577 -6.750643204429862
O -2.6361072910041434 1.2798882563534584 9.101663594653138
H -2.8189960945642007 1.1157562253209252 10.038989428513222
H -2.690637444208046 2.24371396754528 9.017828010697762
O -3.060535725884752 2.980741862124055 7.234788141923895
H -2.885055865278268 3.2900121974637146 6.33338588149827
H -2.6292439354441095 2.1138541243384728 7.272932419024134
O -4.6414307892393944 -9.514834529130018 -1.709578770343188
H -4.812224078756493 -9.729969016959442 -2.638833397074905
H -3.79113735596835 -9.050534151465248 -1.7292810782407138
O 7.565876487987316 6.58252670538388 -11.450017622659264
H 8.415857033386338 7.011683403888368 -11.629809050352332
H 7.812049526447221 5.722727759683432 -11.07704771447924
O 10.775262978009733 -4.473473276394925 -2.1234234834796064
H 11.403743231373369 -3.7902337498750196 -2.401206991688496
H 11.338644033330905 -5.216568671627272 -1.8600360039182489
O 11.377003857666933 3.6180978078662953 1.2860508522341458
H 12.303324507970396 3.836549122787549 1.4681948412388566
H 11.42565118133472 2.7869383832132946 0.7902995103192157
C 7.257741166971131 2.9383353828660144 -9.796024639358409
O 7.366020415621501 2.7830098363056788 -8.614090700342592
O 7.149461918320763 3.09366092942635 -10.977958578374226