146

C -5.3564454929577465 1.0091607042253532 -0.0734429577464788
C -4.079135492957747 0.16955070422535368 -0.19788295774647868
C -4.333545492957747 -1.2789292957746463 0.3017270422535212
C -3.1403854929577464 -2.1745492957746464 0.7330270422535212
C -2.905235492957746 0.902300704225353 0.41966704225352136
C -2.7423854929577463 1.056130704225354 1.8024770422535212
C -1.8861754929577463 1.3499307042253532 -0.4326129577464788
C -1.5304554929577463 1.5279207042253526 2.3254170422535214
H -3.5237954929577464 0.7301007042253529 2.484817042253521
C -0.6776454929577462 1.8010507042253527 0.08546704225352131
H -1.9759254929577463 1.2426607042253535 -1.5115229577464788
C -0.4680254929577463 1.8513207042253539 1.4698070422535212
H -1.3950654929577464 1.5446707042253527 3.404047042253521
H 0.1461845070422536 1.9972507042253538 -0.6030529577464789
C -1.8679654929577463 -2.0866092957746467 -0.08765295774647863
C -0.6628654929577462 -1.814079295774647 0.5787970422535212
C -1.8438954929577462 -2.213429295774647 -1.4808029577464787
C 0.5129345070422537 -1.5763292957746469 -0.13022295774647863
H -0.6401854929577462 -1.7032692957746463 1.6609470422535213
C -0.6547954929577462 -1.9962392957746466 -2.1933129577464787
H -2.7578654929577464 -2.4351492957746466 -2.026182957746479
C 0.5308845070422537 -1.645769295774647 -1.5261029577464789
H 1.4044045070422537 -1.2610992957746463 0.41551704225352126
H -0.6795654929577464 -2.0467992957746466 -3.2793129577464786
C 1.7843245070422535 -1.2521692957746469 -2.2771629577464787
H 1.4981245070422535 -0.9384492957746469 -3.290282957746479
H 2.241984507042254 -0.38631929577464685 -1.8135029577464787
C 0.9385645070422537 2.0647807042253534 1.9815670422535212
H 1.0508945070422537 1.5807407042253532 2.9609770422535213
H 1.6053245070422537 1.5496207042253536 1.3096170422535214
C 3.9676945070422533 -1.6881692957746468 -3.314052957746479
H 4.795084507042254 -2.398849295774647 -3.4044129577464783
H 3.548404507042253 -1.4816192957746468 -4.303802957746479
H 4.307714507042253 -0.7637192957746466 -2.851282957746479
C 2.344694507042253 -3.565079295774647 -3.101282957746479
H 1.6334345070422536 -4.047909295774646 -2.4251929577464786
H 1.8561845070422536 -3.293109295774647 -4.041792957746479
H 3.1808045070422537 -4.243519295774647 -3.298122957746479
C 3.5156645070422536 -2.648489295774647 -1.1110629577464786
H 3.9311845070422535 -1.748249295774647 -0.6771029577464787
H 2.767184507042254 -3.1044092957746465 -0.45972295774647876
H 4.319224507042254 -3.371819295774647 -1.2863129577464787
C 2.963994507042253 3.381090704225353 2.401027042253521
H 3.3337945070422537 4.369820704225353 2.6912870422535216
H 3.120994507042253 2.671350704225353 3.2183370422535216
H 3.4665445070422534 3.0664207042253535 1.4881370422535212
C 1.2973745070422538 4.282440704225354 0.8488370422535213
H 1.7592145070422538 3.7367207042253527 0.02653704225352116
H 0.23311450704225378 4.4484607042253534 0.6605570422535213
H 1.7921845070422535 5.251370704225354 0.9736770422535213
C 0.7724845070422537 4.194670704225353 3.2772470422535216
H -0.2956954929577462 4.278220704225354 3.057857042253521
H 0.9298945070422537 3.612620704225354 4.190337042253521
H 1.2046345070422537 5.193640704225353 3.3918370422535213
N 2.876084507042253 -2.324759295774647 -2.4576629577464786
N 1.4527845070422536 3.504690704225353 2.1388470422535213
C -3.593905492957746 -3.637819295774647 0.8297870422535213
H -2.8952554929577463 -1.8680692957746468 1.7595270422535212
H -5.022615492957747 -1.2402792957746467 1.1579970422535213
H -4.898275492957747 -1.7933092957746464 -0.48931295774647876
H -3.883675492957746 0.07871070422535364 -1.2758929577464788
H -3.8751654929577466 -4.038529295774646 -0.1505529577464788
H -4.4603554929577465 -3.7321892957746465 1.4932570422535212
H -2.7953554929577464 -4.271929295774647 1.2313670422535212
H -5.648775492957746 1.147700704225353 0.9733970422535213
H -6.189795492957747 0.5254307042253537 -0.5943629577464788
H -5.2178854929577465 2.002970704225354 -0.5139729577464787
C 3.6710445070422537 1.0263707042253536 -0.27764295774647874
O 2.7356545070422538 1.6631507042253526 -0.7327029577464788
O 3.650814507042253 0.3883007042253537 0.7790570422535212
O 4.756604507042254 0.8696707042253538 -0.8334829577464786
O -3.069119300343896 8.006166464921117 5.644407707531742
H -2.2157209302537977 7.766638432887962 6.035949404797676
H -3.525509025853567 7.15767360302249 5.540820903081157
O 3.528710487363999 4.073043310631499 12.216568236098324
H 3.3684521424476874 4.028515626820727 13.171189577342659
H 3.9874311467151204 4.917943354126874 12.095402162109002
O -0.01879687972241939 8.36996015975023 -7.726025337276813
H 0.5484230985069258 8.44124490751269 -6.9436268851221925
H -0.13455909737555682 9.28741520799378 -8.015572030776243
O -6.205446561040429 8.54735651839093 2.223892678974379
H -6.408483399411445 8.254912693001039 1.3226601850219968
H -6.347329116098189 7.755720740637306 2.7643962222104017
O -10.043764152388558 5.955506485283323 -1.5533204446306799
H -9.896337646137392 5.762665885499119 -0.6152131558681182
H -10.303272156264207 5.10122591791265 -1.9299133978803653
O 3.5890932382804683 -7.009324337450221 -2.4800275835491288
H 3.7879914934245194 -7.701939494176143 -1.8321918901251104
H 2.934810549654826 -7.418145105299104 -3.0663224645094256
O -3.818378027015665 -11.550468323795624 -5.887747108702694
H -4.27003065221038 -11.636049005131607 -6.7407730227503215
H -4.539465167809071 -11.546595868394704 -5.240460245116263
O -1.9690500737821564 -0.6771769295693298 -2.8745705026035524
H -2.235443983920342 -0.42525950963208636 -3.771531624990388
H -2.370215894816246 -1.550067739923818 -2.747725867191846
O -13.119628657382252 6.8394124928926665 0.30367483425532793
H -14.065696523875085 6.730727110529452 0.12448098237903249
H -12.772099327576992 7.239006317512462 -0.507811508544616
O -4.744304979662985 -8.429647661407301 -5.029021252381248
H -4.733250961812271 -8.307401203463218 -4.06782357806577
H -5.5109191790416245 -7.914284766638289 -5.32170828712374
O -4.601921831219623 -8.402191134102033 1.8230021400105578
H -4.307596939288187 -8.125018858743296 0.9423684223605866
H -4.274890092470409 -7.703746851877242 2.4096773233770987
O -1.9552383636699464 -4.541107980578562 -3.0528733323265898
H -1.2122841629299808 -3.9604196104145317 -2.8297423634785117
H -1.5996746409783018 -5.121629698955865 -3.742460830689141
O -0.7377897309932384 1.0335356842709396 -7.728436217795979
H -0.9794414562749933 0.7610959097889753 -8.62640524278992
H 0.1420677480115926 1.4261397947699044 -7.831755012594307
O 8.907018393794234 2.164818933070907 -0.89416469549298
H 8.303557434730726 1.8085320170635808 -0.224939874324384
H 9.16353890344584 3.029998900395218 -0.5411451541517311
O 5.488800632785819 3.011566512482474 -7.254481967598546
H 5.256836977933829 2.477338134759376 -8.028923869979259
H 6.015031476088678 2.411314619844747 -6.705172665618697
O 7.446245329262881 1.4691493687294868 9.117500557579552
H 7.124012001066309 1.6359719961561452 10.016001114105716
H 8.069200775517519 2.193150548453431 8.954066326036639
O 3.214206901486207 -7.437320238806032 -6.6163622533333895
H 3.3519762693894215 -8.29285742616217 -7.050001595665589
H 2.586204859891576 -6.979851135614108 -7.195410955670032
O -2.2639317563143626 -1.4937180507572299 -8.015774328601228
H -2.9711969925756705 -1.089234176891194 -7.4912402131630005
H -1.961997919378452 -2.2349127270753533 -7.469488364832406
O -4.24002759953353 1.101707171685018 8.401686495134225
H -4.6337288320739525 0.437608562705857 8.987297060226844
H -3.422118645950336 1.3572782305928837 8.854091536880176
O -6.352282868262335 1.4665913081547624 6.352170643796779
H -7.005743915377755 1.5518389307875355 5.641756074943999
H -6.072363541888001 0.5402176602306339 6.302784618912387
O -9.669063693190825 7.46722044552315 -3.1406514870016906
H -9.61960010513356 8.419958244321615 -3.3103906901845632
H -10.480393119460754 7.1907654126251845 -3.59262396531635
O 5.68272735989402 0.8892449342258182 -5.561336488896101
H 6.536418187089884 0.619803855998412 -5.1904175842480695
H 5.0416861751867845 0.3177267727112254 -5.112565795926828
O -1.4428064594602317 -7.13146631345616 -6.959721846247744
H -0.8752519055443433 -7.537487430624499 -6.287415340520845
H -1.1366035026995862 -7.522541056414751 -7.791744826093199
O 8.390037782053593 4.786994092837674 1.84284551557182
H 8.558122364502072 5.2833576277373595 1.027776088305031
H 9.265271736137118 4.702182176594141 2.2499504268446002
C -0.4606995796682689 2.6375805415796236 -16.721475833821618
O 0.38609931962967003 2.8573177773262923 -15.904490259484952
O -1.3074984789662079 2.417843305832955 -17.538461408158284