146

C -5.3564454929577465 1.0091607042253532 -0.0734429577464788
C -4.079135492957747 0.16955070422535368 -0.19788295774647868
C -4.333545492957747 -1.2789292957746463 0.3017270422535212
C -3.1403854929577464 -2.1745492957746464 0.7330270422535212
C -2.905235492957746 0.902300704225353 0.41966704225352136
C -2.7423854929577463 1.056130704225354 1.8024770422535212
C -1.8861754929577463 1.3499307042253532 -0.4326129577464788
C -1.5304554929577463 1.5279207042253526 2.3254170422535214
H -3.5237954929577464 0.7301007042253529 2.484817042253521
C -0.6776454929577462 1.8010507042253527 0.08546704225352131
H -1.9759254929577463 1.2426607042253535 -1.5115229577464788
C -0.4680254929577463 1.8513207042253539 1.4698070422535212
H -1.3950654929577464 1.5446707042253527 3.404047042253521
H 0.1461845070422536 1.9972507042253538 -0.6030529577464789
C -1.8679654929577463 -2.0866092957746467 -0.08765295774647863
C -0.6628654929577462 -1.814079295774647 0.5787970422535212
C -1.8438954929577462 -2.213429295774647 -1.4808029577464787
C 0.5129345070422537 -1.5763292957746469 -0.13022295774647863
H -0.6401854929577462 -1.7032692957746463 1.6609470422535213
C -0.6547954929577462 -1.9962392957746466 -2.1933129577464787
H -2.7578654929577464 -2.4351492957746466 -2.026182957746479
C 0.5308845070422537 -1.645769295774647 -1.5261029577464789
H 1.4044045070422537 -1.2610992957746463 0.41551704225352126
H -0.6795654929577464 -2.0467992957746466 -3.2793129577464786
C 1.7843245070422535 -1.2521692957746469 -2.2771629577464787
H 1.4981245070422535 -0.9384492957746469 -3.290282957746479
H 2.241984507042254 -0.38631929577464685 -1.8135029577464787
C 0.9385645070422537 2.0647807042253534 1.9815670422535212
H 1.0508945070422537 1.5807407042253532 2.9609770422535213
H 1.6053245070422537 1.5496207042253536 1.3096170422535214
C 3.9676945070422533 -1.6881692957746468 -3.314052957746479
H 4.795084507042254 -2.398849295774647 -3.4044129577464783
H 3.548404507042253 -1.4816192957746468 -4.303802957746479
H 4.307714507042253 -0.7637192957746466 -2.851282957746479
C 2.344694507042253 -3.565079295774647 -3.101282957746479
H 1.6334345070422536 -4.047909295774646 -2.4251929577464786
H 1.8561845070422536 -3.293109295774647 -4.041792957746479
H 3.1808045070422537 -4.243519295774647 -3.298122957746479
C 3.5156645070422536 -2.648489295774647 -1.1110629577464786
H 3.9311845070422535 -1.748249295774647 -0.6771029577464787
H 2.767184507042254 -3.1044092957746465 -0.45972295774647876
H 4.319224507042254 -3.371819295774647 -1.2863129577464787
C 2.963994507042253 3.381090704225353 2.401027042253521
H 3.3337945070422537 4.369820704225353 2.6912870422535216
H 3.120994507042253 2.671350704225353 3.2183370422535216
H 3.4665445070422534 3.0664207042253535 1.4881370422535212
C 1.2973745070422538 4.282440704225354 0.8488370422535213
H 1.7592145070422538 3.7367207042253527 0.02653704225352116
H 0.23311450704225378 4.4484607042253534 0.6605570422535213
H 1.7921845070422535 5.251370704225354 0.9736770422535213
C 0.7724845070422537 4.194670704225353 3.2772470422535216
H -0.2956954929577462 4.278220704225354 3.057857042253521
H 0.9298945070422537 3.612620704225354 4.190337042253521
H 1.2046345070422537 5.193640704225353 3.3918370422535213
N 2.876084507042253 -2.324759295774647 -2.4576629577464786
N 1.4527845070422536 3.504690704225353 2.1388470422535213
C -3.593905492957746 -3.637819295774647 0.8297870422535213
H -2.8952554929577463 -1.8680692957746468 1.7595270422535212
H -5.022615492957747 -1.2402792957746467 1.1579970422535213
H -4.898275492957747 -1.7933092957746464 -0.48931295774647876
H -3.883675492957746 0.07871070422535364 -1.2758929577464788
H -3.8751654929577466 -4.038529295774646 -0.1505529577464788
H -4.4603554929577465 -3.7321892957746465 1.4932570422535212
H -2.7953554929577464 -4.271929295774647 1.2313670422535212
H -5.648775492957746 1.147700704225353 0.9733970422535213
H -6.189795492957747 0.5254307042253537 -0.5943629577464788
H -5.2178854929577465 2.002970704225354 -0.5139729577464787
C 3.6710445070422537 1.0263707042253536 -0.27764295774647874
O 2.7356545070422538 1.6631507042253526 -0.7327029577464788
O 3.650814507042253 0.3883007042253537 0.7790570422535212
O 4.756604507042254 0.8696707042253538 -0.8334829577464786
O -8.017615407035612 4.391071467468983 -1.7322149416359214
H -8.02327632527661 4.557757113210615 -2.6867573484510223
H -7.162162447112533 3.9642219441476425 -1.5742223402294326
O 4.624902324226873 -1.1988061077196162 7.290191856467646
H 5.215969136890243 -1.731514113456365 6.737173266823553
H 4.795344082464695 -1.517351790935505 8.189324882806531
O 11.14187894052695 11.172763087944212 -0.6758060968976611
H 11.264566249628801 12.024432495489835 -1.1214229741994894
H 10.692170785388031 10.625337486937605 -1.3369034655689505
O -5.311100163062586 -5.969084431962959 -0.611534024005161
H -4.614909230793307 -5.471699589742421 -0.15667815512438743
H -4.908141448064614 -6.215301449252879 -1.4576802280999612
O 7.487830516295951 4.286833901221642 3.2371079046652387
H 7.539500612142129 4.264424793891457 4.204473083904139
H 6.701738213201954 3.758518975177238 3.032402813778199
O -7.332124465539652 3.242120946121023 -9.429579420769022
H -7.26181830660131 3.199510697154813 -10.39508901036323
H -7.226225702555194 2.3215126004707614 -9.146334526344695
O 3.2369252773380026 9.933165097881663 -9.501124066671634
H 3.19734739302203 10.056729281573098 -10.46140154765395
H 3.3294775255035782 8.974778828202789 -9.392074611145667
O 10.912604539387212 -5.569058137767979 -7.399456395822799
H 10.891751917776586 -5.8277480859581825 -6.465854748557053
H 11.662374970923453 -4.9578488134945236 -7.456284260600084
O 9.30363870483523 -5.378326241769912 -2.9507470354473337
H 9.717790000184737 -5.289173192872829 -2.079255328468615
H 8.671731048515062 -6.10399402895438 -2.8364626496951746
O -4.357877824610801 7.947851039980213 5.17728235336354
H -4.02081761938552 7.89756114535941 4.270183295127605
H -5.1526741981953625 8.496962804497224 5.101539770189724
O -6.177126455560396 9.72872203018715 -1.54140702842178
H -6.100188654302268 10.029293613532962 -2.459396491826757
H -5.498081597875823 10.235668704616804 -1.0714441630410678
O 8.82629116714965 -6.343495347687199 5.06195201051336
H 8.804353327716642 -6.343997951226523 4.093197224465468
H 8.041640816244827 -6.853108498944918 5.3141031699200045
O -8.519255861789429 2.0922122140464 -11.458259049423084
H -8.452939079801087 2.228039320853097 -12.415400856253834
H -8.659343734709857 2.9834020084596546 -11.10453870438439
O 5.256449901973976 0.341764050403881 -10.686251453747468
H 5.677177049291685 0.6243430758027078 -9.86035489919929
H 5.950859605046885 -0.1547922220322242 -11.144715167559756
O -1.6631782459991937 8.195783495641642 -0.9394642842078795
H -1.5559893620624683 8.701424286657796 -0.11982699215671921
H -2.150432598526366 8.796563842022131 -1.5230806956000413
O 3.7997769241788992 3.409686985038663 -3.028717411626271
H 3.8813724000176926 4.286711727174274 -2.624815026259946
H 3.814023932830718 3.5883196541187647 -3.9810037848259467
O -2.3282697950887736 -3.0662688334656694 8.513681160717628
H -2.450815278415711 -3.181553176080299 9.467965961898116
H -3.1027985523372923 -3.4991804016059835 8.124252447516664
O -0.15848670440006085 6.968380262350809 -6.252465406713609
H -0.16087417923404423 7.477629300354543 -5.42807043210727
H 0.17452368155456455 7.5941254741623805 -6.913153651683384
O 13.765233847709712 6.4126451243408304 -3.275703231359183
H 14.209829104720072 6.61099669414567 -4.113533207607256
H 14.200203601931044 6.996230608404421 -2.6360226548189054
O -5.817030754024962 -5.593096034255273 11.54244108365002
H -6.01300172257778 -5.4593708890146955 12.481951765821787
H -5.717462717530902 -4.694450222823423 11.193895740825438
O 4.393773413870874 4.77407401222688 5.84069667058537
H 4.954171447843993 4.950277453434513 6.6113287149007185
H 3.650034114430107 5.385993948161525 5.947316512890149
O -3.807728876358559 6.311192135256565 1.6477116447147027
H -4.097164111634879 6.1615013226644635 0.7351398600829082
H -3.55705045333191 5.429304807012416 1.961394626100795
O -1.4304259377000323 -3.934177988613336 10.82478434195152
H -1.2584390385733295 -4.885812709893859 10.763308975485547
H -2.3779316236893955 -3.85501567747738 10.637893336781554
O -3.110290756460851 -2.3171933073265696 -8.936583711450595
H -2.7269506021200396 -1.9439147053826251 -9.744470317541287
H -3.7085584430809475 -3.007959353538041 -9.25888789827976
C 2.89435681472425 -11.131407645967442 -3.393897635769663
O 3.2913165043993526 -11.558216686919103 -2.3483952184434425
O 2.4973971250491482 -10.704598605015782 -4.439400053095884