146

C -5.3564454929577465 1.0091607042253532 -0.0734429577464788
C -4.079135492957747 0.16955070422535368 -0.19788295774647868
C -4.333545492957747 -1.2789292957746463 0.3017270422535212
C -3.1403854929577464 -2.1745492957746464 0.7330270422535212
C -2.905235492957746 0.902300704225353 0.41966704225352136
C -2.7423854929577463 1.056130704225354 1.8024770422535212
C -1.8861754929577463 1.3499307042253532 -0.4326129577464788
C -1.5304554929577463 1.5279207042253526 2.3254170422535214
H -3.5237954929577464 0.7301007042253529 2.484817042253521
C -0.6776454929577462 1.8010507042253527 0.08546704225352131
H -1.9759254929577463 1.2426607042253535 -1.5115229577464788
C -0.4680254929577463 1.8513207042253539 1.4698070422535212
H -1.3950654929577464 1.5446707042253527 3.404047042253521
H 0.1461845070422536 1.9972507042253538 -0.6030529577464789
C -1.8679654929577463 -2.0866092957746467 -0.08765295774647863
C -0.6628654929577462 -1.814079295774647 0.5787970422535212
C -1.8438954929577462 -2.213429295774647 -1.4808029577464787
C 0.5129345070422537 -1.5763292957746469 -0.13022295774647863
H -0.6401854929577462 -1.7032692957746463 1.6609470422535213
C -0.6547954929577462 -1.9962392957746466 -2.1933129577464787
H -2.7578654929577464 -2.4351492957746466 -2.026182957746479
C 0.5308845070422537 -1.645769295774647 -1.5261029577464789
H 1.4044045070422537 -1.2610992957746463 0.41551704225352126
H -0.6795654929577464 -2.0467992957746466 -3.2793129577464786
C 1.7843245070422535 -1.2521692957746469 -2.2771629577464787
H 1.4981245070422535 -0.9384492957746469 -3.290282957746479
H 2.241984507042254 -0.38631929577464685 -1.8135029577464787
C 0.9385645070422537 2.0647807042253534 1.9815670422535212
H 1.0508945070422537 1.5807407042253532 2.9609770422535213
H 1.6053245070422537 1.5496207042253536 1.3096170422535214
C 3.9676945070422533 -1.6881692957746468 -3.314052957746479
H 4.795084507042254 -2.398849295774647 -3.4044129577464783
H 3.548404507042253 -1.4816192957746468 -4.303802957746479
H 4.307714507042253 -0.7637192957746466 -2.851282957746479
C 2.344694507042253 -3.565079295774647 -3.101282957746479
H 1.6334345070422536 -4.047909295774646 -2.4251929577464786
H 1.8561845070422536 -3.293109295774647 -4.041792957746479
H 3.1808045070422537 -4.243519295774647 -3.298122957746479
C 3.5156645070422536 -2.648489295774647 -1.1110629577464786
H 3.9311845070422535 -1.748249295774647 -0.6771029577464787
H 2.767184507042254 -3.1044092957746465 -0.45972295774647876
H 4.319224507042254 -3.371819295774647 -1.2863129577464787
C 2.963994507042253 3.381090704225353 2.401027042253521
H 3.3337945070422537 4.369820704225353 2.6912870422535216
H 3.120994507042253 2.671350704225353 3.2183370422535216
H 3.4665445070422534 3.0664207042253535 1.4881370422535212
C 1.2973745070422538 4.282440704225354 0.8488370422535213
H 1.7592145070422538 3.7367207042253527 0.02653704225352116
H 0.23311450704225378 4.4484607042253534 0.6605570422535213
H 1.7921845070422535 5.251370704225354 0.9736770422535213
C 0.7724845070422537 4.194670704225353 3.2772470422535216
H -0.2956954929577462 4.278220704225354 3.057857042253521
H 0.9298945070422537 3.612620704225354 4.190337042253521
H 1.2046345070422537 5.193640704225353 3.3918370422535213
N 2.876084507042253 -2.324759295774647 -2.4576629577464786
N 1.4527845070422536 3.504690704225353 2.1388470422535213
C -3.593905492957746 -3.637819295774647 0.8297870422535213
H -2.8952554929577463 -1.8680692957746468 1.7595270422535212
H -5.022615492957747 -1.2402792957746467 1.1579970422535213
H -4.898275492957747 -1.7933092957746464 -0.48931295774647876
H -3.883675492957746 0.07871070422535364 -1.2758929577464788
H -3.8751654929577466 -4.038529295774646 -0.1505529577464788
H -4.4603554929577465 -3.7321892957746465 1.4932570422535212
H -2.7953554929577464 -4.271929295774647 1.2313670422535212
H -5.648775492957746 1.147700704225353 0.9733970422535213
H -6.189795492957747 0.5254307042253537 -0.5943629577464788
H -5.2178854929577465 2.002970704225354 -0.5139729577464787
C 3.6710445070422537 1.0263707042253536 -0.27764295774647874
O 2.7356545070422538 1.6631507042253526 -0.7327029577464788
O 3.650814507042253 0.3883007042253537 0.7790570422535212
O 4.756604507042254 0.8696707042253538 -0.8334829577464786
O -2.0468525414656824 7.601967507026728 5.810979422247046
H -2.4222998003474823 7.031229039843801 5.123764525161842
H -2.821829015799251 8.010234526634688 6.225336091349817
O 1.152186925896688 4.30782557575934 -1.8289610503767022
H 1.2961940025713283 4.0709890837989615 -2.7574748062487022
H 0.18979714397199143 4.267085668680261 -1.723566022419389
O 12.811075274144759 0.1303264603773222 -8.281736926614746
H 13.75622230794108 0.33798635329954063 -8.23132055747189
H 12.445542697223031 0.8363325349731721 -8.83572546633621
O -5.778827746352093 5.121511399006012 -10.008688865518218
H -6.660264834742697 4.820220936488484 -10.275634690182088
H -5.596625171586428 4.622965569206838 -9.198000132625861
O 5.839436132302891 -9.415102981723678 0.5802340168556399
H 5.283389918383124 -9.652857079231035 1.3373687168951733
H 5.400264039699955 -8.638554477339499 0.20199832615809066
O -2.1167673100964333 -5.136734839721102 -8.225080666209557
H -1.959457055511399 -5.151523585417262 -9.181115254340721
H -2.7093556307026176 -4.380819071373737 -8.097047944825713
O -8.156295400084556 1.202922888568256 -2.9305548045047707
H -8.506966713284065 0.8823917533959325 -2.0860094958421307
H -8.2156269859658 0.43301389506702304 -3.5159451434605256
O -4.39197009394472 -5.689128475972877 -9.625332995874176
H -4.814255034843229 -6.150556400299758 -10.365418839706992
H -4.021052043062521 -4.88998934459215 -10.02876625246789
O 0.09679588937556272 -5.504454437586096 3.9840578835561753
H 0.045567549065336 -5.54145164470024 4.950998533603951
H -0.16104386633901546 -6.394844978955562 3.7017720558693505
O -10.83910124581947 8.813302071718649 2.4484931633064138
H -11.440375125909515 9.24922993808213 3.0709110079648445
H -11.320704838800966 8.829097799140875 1.6077967742797243
O -1.878424175085943 -0.2938548453864254 5.220761006160446
H -1.714710991853866 -0.2507654010686352 6.174861970589476
H -1.0662527319387647 0.059507888319383584 4.827728857775373
O 5.804872672318653 -1.510475969151655 -9.025886760645161
H 5.673010699951808 -2.219730525997126 -8.378941824242178
H 5.810680471399268 -1.9699497575828588 -9.8790057743323
O 0.552811011962496 0.9148886430948573 -7.579268783704251
H 0.4317835132897985 0.19207648743866068 -8.21319487490154
H 1.169801017944104 1.5153483436245945 -8.023941050501442
O -7.061133889599349 7.030608956083076 -1.7098860841767562
H -6.440255515876281 7.1445882114775205 -0.974708465309909
H -7.868289136817404 6.702496791349497 -1.2858521721576759
O 9.207219110766419 -2.140328528068985 -0.0011691230881545889
H 9.23491711100032 -2.2825060263286776 -0.9592848450506217
H 8.347863827977472 -2.5009394825793696 0.26421772988281944
O -5.217972063504359 -5.584493435535062 0.4247639695099372
H -5.684737874782996 -4.953793692440543 -0.14384386404663907
H -4.689854073553132 -5.023472820854693 1.0123941277672681
O -9.762997110427476 -5.841763879540609 0.2147407111025833
H -9.681567197229588 -5.817725323543787 -0.7505357642982076
H -10.088455193449978 -4.958380481394195 0.44424616283437557
O -8.610016751181009 -2.206561431317583 -3.9776703484219835
H -8.265273880477523 -2.298620449150396 -4.878583689001852
H -8.364863260713314 -3.0392704211423704 -3.5470226401075347
O 8.960037276190455 4.178379612825515 -7.352449559151745
H 9.275793779698258 3.9384401975894066 -8.236584313817957
H 8.674329029730526 3.33548949642773 -6.969214652229479
O -3.753453555252762 -9.008795054584969 -5.750519981610347
H -3.8290648374794767 -9.293426711424848 -4.827354172654764
H -4.044140473912233 -9.781285242971204 -6.258183224781702
O 2.506531844342736 -2.980689487981235 -7.179709152523147
H 3.331274444950811 -3.2620205772437214 -7.603524935448478
H 2.0329790464180038 -2.507439309716067 -7.880240351435546
O 7.328466195857528 -7.896422193115403 -0.5228788707553234
H 7.830110342944556 -8.027671665086627 -1.3414716160814741
H 7.19078478011632 -8.794555162491298 -0.18618473451363693
O -9.977139396864535 4.000922620268527 -6.013728316652564
H -10.644958127918095 3.573762286165966 -5.456485507525877
H -9.510464787044771 4.594523918731788 -5.406427525188976
O -3.578614889417482 -5.361545962530808 4.2408615812947845
H -3.639564640564223 -5.308236391636749 3.27524748944119
H -2.640603015400726 -5.2031593363017805 4.425277809255775
C -1.3384533454374945 -1.8540271537600375 7.94820646036194
O -0.15593570355842748 -1.728268772072274 7.811622737393039
O -2.520970987316561 -1.9797855354478018 8.084790183330842