146

C -5.3564454929577465 1.0091607042253532 -0.0734429577464788
C -4.079135492957747 0.16955070422535368 -0.19788295774647868
C -4.333545492957747 -1.2789292957746463 0.3017270422535212
C -3.1403854929577464 -2.1745492957746464 0.7330270422535212
C -2.905235492957746 0.902300704225353 0.41966704225352136
C -2.7423854929577463 1.056130704225354 1.8024770422535212
C -1.8861754929577463 1.3499307042253532 -0.4326129577464788
C -1.5304554929577463 1.5279207042253526 2.3254170422535214
H -3.5237954929577464 0.7301007042253529 2.484817042253521
C -0.6776454929577462 1.8010507042253527 0.08546704225352131
H -1.9759254929577463 1.2426607042253535 -1.5115229577464788
C -0.4680254929577463 1.8513207042253539 1.4698070422535212
H -1.3950654929577464 1.5446707042253527 3.404047042253521
H 0.1461845070422536 1.9972507042253538 -0.6030529577464789
C -1.8679654929577463 -2.0866092957746467 -0.08765295774647863
C -0.6628654929577462 -1.814079295774647 0.5787970422535212
C -1.8438954929577462 -2.213429295774647 -1.4808029577464787
C 0.5129345070422537 -1.5763292957746469 -0.13022295774647863
H -0.6401854929577462 -1.7032692957746463 1.6609470422535213
C -0.6547954929577462 -1.9962392957746466 -2.1933129577464787
H -2.7578654929577464 -2.4351492957746466 -2.026182957746479
C 0.5308845070422537 -1.645769295774647 -1.5261029577464789
H 1.4044045070422537 -1.2610992957746463 0.41551704225352126
H -0.6795654929577464 -2.0467992957746466 -3.2793129577464786
C 1.7843245070422535 -1.2521692957746469 -2.2771629577464787
H 1.4981245070422535 -0.9384492957746469 -3.290282957746479
H 2.241984507042254 -0.38631929577464685 -1.8135029577464787
C 0.9385645070422537 2.0647807042253534 1.9815670422535212
H 1.0508945070422537 1.5807407042253532 2.9609770422535213
H 1.6053245070422537 1.5496207042253536 1.3096170422535214
C 3.9676945070422533 -1.6881692957746468 -3.314052957746479
H 4.795084507042254 -2.398849295774647 -3.4044129577464783
H 3.548404507042253 -1.4816192957746468 -4.303802957746479
H 4.307714507042253 -0.7637192957746466 -2.851282957746479
C 2.344694507042253 -3.565079295774647 -3.101282957746479
H 1.6334345070422536 -4.047909295774646 -2.4251929577464786
H 1.8561845070422536 -3.293109295774647 -4.041792957746479
H 3.1808045070422537 -4.243519295774647 -3.298122957746479
C 3.5156645070422536 -2.648489295774647 -1.1110629577464786
H 3.9311845070422535 -1.748249295774647 -0.6771029577464787
H 2.767184507042254 -3.1044092957746465 -0.45972295774647876
H 4.319224507042254 -3.371819295774647 -1.2863129577464787
C 2.963994507042253 3.381090704225353 2.401027042253521
H 3.3337945070422537 4.369820704225353 2.6912870422535216
H 3.120994507042253 2.671350704225353 3.2183370422535216
H 3.4665445070422534 3.0664207042253535 1.4881370422535212
C 1.2973745070422538 4.282440704225354 0.8488370422535213
H 1.7592145070422538 3.7367207042253527 0.02653704225352116
H 0.23311450704225378 4.4484607042253534 0.6605570422535213
H 1.7921845070422535 5.251370704225354 0.9736770422535213
C 0.7724845070422537 4.194670704225353 3.2772470422535216
H -0.2956954929577462 4.278220704225354 3.057857042253521
H 0.9298945070422537 3.612620704225354 4.190337042253521
H 1.2046345070422537 5.193640704225353 3.3918370422535213
N 2.876084507042253 -2.324759295774647 -2.4576629577464786
N 1.4527845070422536 3.504690704225353 2.1388470422535213
C -3.593905492957746 -3.637819295774647 0.8297870422535213
H -2.8952554929577463 -1.8680692957746468 1.7595270422535212
H -5.022615492957747 -1.2402792957746467 1.1579970422535213
H -4.898275492957747 -1.7933092957746464 -0.48931295774647876
H -3.883675492957746 0.07871070422535364 -1.2758929577464788
H -3.8751654929577466 -4.038529295774646 -0.1505529577464788
H -4.4603554929577465 -3.7321892957746465 1.4932570422535212
H -2.7953554929577464 -4.271929295774647 1.2313670422535212
H -5.648775492957746 1.147700704225353 0.9733970422535213
H -6.189795492957747 0.5254307042253537 -0.5943629577464788
H -5.2178854929577465 2.002970704225354 -0.5139729577464787
C 3.6710445070422537 1.0263707042253536 -0.27764295774647874
O 2.7356545070422538 1.6631507042253526 -0.7327029577464788
O 3.650814507042253 0.3883007042253537 0.7790570422535212
O 4.756604507042254 0.8696707042253538 -0.8334829577464786
O 1.061058330770345 0.12229435926821752 -6.888932304033276
H 1.503557159976373 -0.2896112358192102 -7.646227440546753
H 0.6760814645441966 -0.6254637691504796 -6.407670900891014
O 2.8417761123816234 -3.9877816865091607 3.900890819940036
H 2.713843659376319 -3.373429974775589 4.639248875803229
H 2.3234545109016818 -4.766967959349967 4.152234039374579
O -1.3609640598757324 2.8895289982189714 8.692703072677212
H -1.4900061890735958 2.6465398616792952 9.621827265299373
H -2.010450816603496 2.3499820502989253 8.217289580940372
O -10.874012566087345 4.62058629039363 5.8859778353645975
H -11.459481166544371 5.025674002176658 5.228636355963454
H -11.446899507847458 4.48028038729617 6.654792995085549
O -12.670599813407637 0.6818025061265658 -11.95070238167104
H -13.214323244083722 -0.06177963704570022 -12.251397882450759
H -11.933260208596774 0.2593545850590262 -11.485052292587964
O -10.378554899645755 -0.04416368344076771 -1.310641649725673
H -10.538534108006289 -0.14580787994250732 -0.36035618361043564
H -11.259084842586617 -0.1275481991958367 -1.7064648254201442
O -7.593969329687182 3.7313281135732197 -2.1721228587590518
H -8.221421890039744 3.7469214071393253 -1.43386308699658
H -8.114075611478667 4.043031362761743 -2.9279617863000684
O -2.1609907192006643 -7.233083431969063 -2.8895589115751568
H -2.708866166468239 -6.449135244911437 -2.7339147944668682
H -2.146748853474036 -7.682823251348664 -2.0313670866169904
O -2.9658597661306083 -0.4569321048536009 -13.000019945545711
H -2.810968772931054 -0.05751809454568935 -13.869183097948877
H -2.374660837892625 -1.224566377960458 -12.986477630309107
O 4.6402521154473755 10.573105221821207 -7.035391794055044
H 4.491764130446865 10.585202607796173 -7.992874080294879
H 4.304416710422139 9.7077267041428 -6.7573692299127455
O 5.938441381884606 8.36616677118821 3.051283884892719
H 5.96880569495634 8.348056565881903 2.0829257972745863
H 5.229735357153347 8.995938388832199 3.2514973320427285
O -1.5978464308033224 3.2909650865328395 -1.3785590083623753
H -1.6443163740567412 3.3705142481379644 -0.4139451829576454
H -2.502375758882504 3.059940543678702 -1.6382054979278242
O 6.247369580062629 -5.681229761296191 -4.285407985553826
H 5.9081522274861005 -6.395786758775548 -3.7256694376903985
H 5.50490937228272 -5.061915690393793 -4.349943756609202
O -0.29399318714993417 10.487311087496654 -5.733108534623856
H 0.4157135586818912 10.936390229749586 -5.249774679184188
H 0.17321423414583936 9.862727843551363 -6.308065003557751
O -9.548219366269127 11.429230906661513 -1.2598040457132265
H -9.632726125273798 12.38453862164106 -1.1211925949485626
H -9.769226415190174 11.04710550050558 -0.3971928919496248
O 1.8260900430800433 5.519125320805342 5.255171954397214
H 1.6641129459228736 6.01787210724127 4.440320790124638
H 2.7436590233347706 5.732754429008 5.481869362637439
O -0.7351373228902411 -3.916431499083538 -7.520472685631807
H -0.32038891969830585 -3.0434734537141215 -7.450505765058232
H -0.6087419124656264 -4.306655684631302 -6.642571079791394
O 4.413223591199127 7.7159319381033065 -4.574450678585805
H 3.9683604323082826 7.134864504135836 -5.20960795355329
H 4.489015055589359 8.560614626878161 -5.043203015656955
O -3.9445745376944155 6.100326687193341 5.381700477611421
H -3.3852901167842613 5.323209468622096 5.530888687692799
H -4.425039652122826 5.889973264969651 4.5669203502911255
O -8.963515663002392 -7.592391622497963 10.58248835817865
H -8.853990116519885 -7.927273433621526 11.485165312657
H -9.889380160609546 -7.785705384179581 10.371854396256191
O -4.026436901543438 -4.489754132580294 -3.441845436966966
H -4.077415555529421 -3.5843668839353056 -3.7833750311880774
H -4.467958400877476 -5.021355597500494 -4.1211249025925065
O -5.233722501455748 10.394557013065352 5.760428054322881
H -5.412831396156385 10.783241584426243 6.629802349275935
H -5.296156224958754 11.1453455890003 5.151018103046137
O 13.318621367670387 5.952782297650031 -6.455386625205906
H 13.869959434525907 5.7476571706767094 -7.2253979077337664
H 12.467828840830995 5.536067321982982 -6.659010419564645
O 5.51710644411693 4.269442689474528 -3.887849935625916
H 5.506343099504461 4.9715630059880525 -4.5555913290198715
H 4.722579951767274 3.749764658893162 -4.081819886354436
C -8.300368306380808 1.315623119376552 1.3105627513664073
O -8.918324358935937 1.1085761731797397 0.30653081139584215
O -7.682412253825678 1.5226700655733636 2.3145946913369735