146

C -5.3564454929577465 1.0091607042253532 -0.0734429577464788
C -4.079135492957747 0.16955070422535368 -0.19788295774647868
C -4.333545492957747 -1.2789292957746463 0.3017270422535212
C -3.1403854929577464 -2.1745492957746464 0.7330270422535212
C -2.905235492957746 0.902300704225353 0.41966704225352136
C -2.7423854929577463 1.056130704225354 1.8024770422535212
C -1.8861754929577463 1.3499307042253532 -0.4326129577464788
C -1.5304554929577463 1.5279207042253526 2.3254170422535214
H -3.5237954929577464 0.7301007042253529 2.484817042253521
C -0.6776454929577462 1.8010507042253527 0.08546704225352131
H -1.9759254929577463 1.2426607042253535 -1.5115229577464788
C -0.4680254929577463 1.8513207042253539 1.4698070422535212
H -1.3950654929577464 1.5446707042253527 3.404047042253521
H 0.1461845070422536 1.9972507042253538 -0.6030529577464789
C -1.8679654929577463 -2.0866092957746467 -0.08765295774647863
C -0.6628654929577462 -1.814079295774647 0.5787970422535212
C -1.8438954929577462 -2.213429295774647 -1.4808029577464787
C 0.5129345070422537 -1.5763292957746469 -0.13022295774647863
H -0.6401854929577462 -1.7032692957746463 1.6609470422535213
C -0.6547954929577462 -1.9962392957746466 -2.1933129577464787
H -2.7578654929577464 -2.4351492957746466 -2.026182957746479
C 0.5308845070422537 -1.645769295774647 -1.5261029577464789
H 1.4044045070422537 -1.2610992957746463 0.41551704225352126
H -0.6795654929577464 -2.0467992957746466 -3.2793129577464786
C 1.7843245070422535 -1.2521692957746469 -2.2771629577464787
H 1.4981245070422535 -0.9384492957746469 -3.290282957746479
H 2.241984507042254 -0.38631929577464685 -1.8135029577464787
C 0.9385645070422537 2.0647807042253534 1.9815670422535212
H 1.0508945070422537 1.5807407042253532 2.9609770422535213
H 1.6053245070422537 1.5496207042253536 1.3096170422535214
C 3.9676945070422533 -1.6881692957746468 -3.314052957746479
H 4.795084507042254 -2.398849295774647 -3.4044129577464783
H 3.548404507042253 -1.4816192957746468 -4.303802957746479
H 4.307714507042253 -0.7637192957746466 -2.851282957746479
C 2.344694507042253 -3.565079295774647 -3.101282957746479
H 1.6334345070422536 -4.047909295774646 -2.4251929577464786
H 1.8561845070422536 -3.293109295774647 -4.041792957746479
H 3.1808045070422537 -4.243519295774647 -3.298122957746479
C 3.5156645070422536 -2.648489295774647 -1.1110629577464786
H 3.9311845070422535 -1.748249295774647 -0.6771029577464787
H 2.767184507042254 -3.1044092957746465 -0.45972295774647876
H 4.319224507042254 -3.371819295774647 -1.2863129577464787
C 2.963994507042253 3.381090704225353 2.401027042253521
H 3.3337945070422537 4.369820704225353 2.6912870422535216
H 3.120994507042253 2.671350704225353 3.2183370422535216
H 3.4665445070422534 3.0664207042253535 1.4881370422535212
C 1.2973745070422538 4.282440704225354 0.8488370422535213
H 1.7592145070422538 3.7367207042253527 0.02653704225352116
H 0.23311450704225378 4.4484607042253534 0.6605570422535213
H 1.7921845070422535 5.251370704225354 0.9736770422535213
C 0.7724845070422537 4.194670704225353 3.2772470422535216
H -0.2956954929577462 4.278220704225354 3.057857042253521
H 0.9298945070422537 3.612620704225354 4.190337042253521
H 1.2046345070422537 5.193640704225353 3.3918370422535213
N 2.876084507042253 -2.324759295774647 -2.4576629577464786
N 1.4527845070422536 3.504690704225353 2.1388470422535213
C -3.593905492957746 -3.637819295774647 0.8297870422535213
H -2.8952554929577463 -1.8680692957746468 1.7595270422535212
H -5.022615492957747 -1.2402792957746467 1.1579970422535213
H -4.898275492957747 -1.7933092957746464 -0.48931295774647876
H -3.883675492957746 0.07871070422535364 -1.2758929577464788
H -3.8751654929577466 -4.038529295774646 -0.1505529577464788
H -4.4603554929577465 -3.7321892957746465 1.4932570422535212
H -2.7953554929577464 -4.271929295774647 1.2313670422535212
H -5.648775492957746 1.147700704225353 0.9733970422535213
H -6.189795492957747 0.5254307042253537 -0.5943629577464788
H -5.2178854929577465 2.002970704225354 -0.5139729577464787
C 3.6710445070422537 1.0263707042253536 -0.27764295774647874
O 2.7356545070422538 1.6631507042253526 -0.7327029577464788
O 3.650814507042253 0.3883007042253537 0.7790570422535212
O 4.756604507042254 0.8696707042253538 -0.8334829577464786
O -2.5872944154303275 8.83688557217527 -3.3927725615009843
H -2.883671197815145 8.722055303096225 -4.308164373276935
H -3.39869098258933 8.746045784445984 -2.8709050610107885
O -8.20146360867748 -7.288981045462338 4.150200997338794
H -7.951481612473231 -7.825415588433787 3.382923772614411
H -7.372222671966125 -7.179493958678123 4.639418731082757
O 0.7965324149536199 -1.4490202701214518 5.570505426079144
H 1.0780272070830896 -1.5465748743188783 4.6484364817458745
H 1.3609457704520465 -2.0704076483689304 6.0545273621416875
O 7.876856096773045 -5.28332934362968 -4.318186970929709
H 7.086701983823781 -5.779305062649175 -4.58016391806907
H 7.534235601239458 -4.586174804334169 -3.7389213248915714
O 1.995515228419673 -2.0981474607695203 -6.329171839434153
H 2.3884270511484393 -1.8073458897290846 -5.4924986040905255
H 1.056022698388881 -2.210339151565452 -6.120057624631117
O -1.3950750842746322 -7.499791523452769 -2.030298967051599
H -1.5954568796106579 -6.6354400282739014 -1.6407980225341738
H -0.6708679601354015 -7.316222251747432 -2.6473794384097165
O -1.9319456508539439 11.625198120911527 -4.6587455210650806
H -2.0851982258725608 10.783315256356609 -5.113403906579933
H -2.4261065402235733 12.269884220894271 -5.18708896259384
O 6.559403353372904 4.682723871374782 -4.073643075286748
H 7.520175753272188 4.667114031663978 -4.198703402313243
H 6.215844000219368 4.197697290061093 -4.838939181757882
O 6.143945477622275 -0.025442256817512998 -3.061221358234701
H 6.131018979421019 -0.048813001106709386 -2.0925861994387676
H 5.8989839518219895 -0.9264387035640178 -3.3203761346285905
O -2.3592182227004916 -10.094983590564533 2.1429802463932024
H -2.2442401271186028 -10.806204343759415 1.4949737381995982
H -2.922940816747858 -9.45197332432808 1.6872209033457644
O -4.754398265533781 13.090662773181702 3.032932218292806
H -5.138167987484011 12.346463017276442 3.520635899563303
H -4.357587459070404 12.678334886704164 2.2509546980232944
O 0.7644590839981333 5.016592430688737 5.128578355325078
H 0.7905344100425791 4.995865713325325 6.097008960716611
H 1.65990004895501 5.287492500105711 4.876069791179273
O 2.840134915522566 4.602573118808087 7.3574057414490195
H 2.744211601863378 4.529279769059189 6.3959515513394605
H 2.5287838328153347 5.498426955033759 7.556072174740557
O -0.7898010832956689 -2.8405011536532605 7.7966318383211375
H -0.9019933857066182 -2.8307291554070497 8.759068720526928
H -0.9871828601663593 -1.930429889965671 7.528727613887399
O -1.12541086305117 1.2665207618882333 -8.701244594191005
H -0.39536064554134764 0.7889969394296359 -9.123103617797696
H -1.3890669772387416 1.9232041823696262 -9.363222148958814
O -6.095620132265328 -6.115074453089141 -1.6410444194084048
H -5.5250546569491545 -6.896222068004647 -1.5842043016301237
H -6.655992448020237 -6.290130559975265 -2.411953085514419
O -2.8435455607114952 3.7559016918274204 -0.78489918229248
H -3.575232667127826 3.2227572081912665 -0.4394164840680434
H -2.4668657599432264 3.2077165148878652 -1.4895744860863092
O -8.389143631231356 0.9959253359659078 0.9098044961377525
H -8.288292542356245 1.9422540064328753 0.7274354685455453
H -8.517910350541413 0.6012501016220231 0.034240371876300024
O 6.283466980063604 -6.200714713796788 1.5268047881667768
H 6.040200569790582 -7.113292728519869 1.743576967140371
H 5.513653201113333 -5.86115336588572 1.046131530076502
O -6.8653518740406065 -2.7929111770023414 8.44666966458612
H -6.250934879937533 -2.330016599239134 9.035896042249888
H -7.675442725095363 -2.876101110344581 8.971830775415828
O 4.261362131736878 -9.185488064998006 -0.8573160001941815
H 4.391525024116404 -8.857773467357823 -1.7598835161401798
H 3.921485152467719 -10.08439902839236 -0.9814315236080806
O 1.871348653466727 0.9567460659857567 5.043099429288411
H 2.3914513327869074 0.1412246569854112 4.984915313534527
H 2.4102324327721583 1.6119396774905452 4.574817945408462
O -8.213790055878631 1.3937135342379734 -5.333011606348663
H -7.345818146614819 1.3477897936921135 -5.761360916705536
H -8.524641329722895 0.47592847899590396 -5.335017154580258
O 7.626765404931778 11.417749963774991 -4.732875440122076
H 7.862862344225681 11.521876208391202 -5.666890063850301
H 6.6580001484450735 11.396855042577101 -4.737260003085691
C -5.066938532061192 0.3488536024227818 7.238845677859333
O -5.509007361279779 0.9908083681747268 6.330392329435941
O -4.624869702842604 -0.2931011633291631 8.147299026282724