146

C -5.3564454929577465 1.0091607042253532 -0.0734429577464788
C -4.079135492957747 0.16955070422535368 -0.19788295774647868
C -4.333545492957747 -1.2789292957746463 0.3017270422535212
C -3.1403854929577464 -2.1745492957746464 0.7330270422535212
C -2.905235492957746 0.902300704225353 0.41966704225352136
C -2.7423854929577463 1.056130704225354 1.8024770422535212
C -1.8861754929577463 1.3499307042253532 -0.4326129577464788
C -1.5304554929577463 1.5279207042253526 2.3254170422535214
H -3.5237954929577464 0.7301007042253529 2.484817042253521
C -0.6776454929577462 1.8010507042253527 0.08546704225352131
H -1.9759254929577463 1.2426607042253535 -1.5115229577464788
C -0.4680254929577463 1.8513207042253539 1.4698070422535212
H -1.3950654929577464 1.5446707042253527 3.404047042253521
H 0.1461845070422536 1.9972507042253538 -0.6030529577464789
C -1.8679654929577463 -2.0866092957746467 -0.08765295774647863
C -0.6628654929577462 -1.814079295774647 0.5787970422535212
C -1.8438954929577462 -2.213429295774647 -1.4808029577464787
C 0.5129345070422537 -1.5763292957746469 -0.13022295774647863
H -0.6401854929577462 -1.7032692957746463 1.6609470422535213
C -0.6547954929577462 -1.9962392957746466 -2.1933129577464787
H -2.7578654929577464 -2.4351492957746466 -2.026182957746479
C 0.5308845070422537 -1.645769295774647 -1.5261029577464789
H 1.4044045070422537 -1.2610992957746463 0.41551704225352126
H -0.6795654929577464 -2.0467992957746466 -3.2793129577464786
C 1.7843245070422535 -1.2521692957746469 -2.2771629577464787
H 1.4981245070422535 -0.9384492957746469 -3.290282957746479
H 2.241984507042254 -0.38631929577464685 -1.8135029577464787
C 0.9385645070422537 2.0647807042253534 1.9815670422535212
H 1.0508945070422537 1.5807407042253532 2.9609770422535213
H 1.6053245070422537 1.5496207042253536 1.3096170422535214
C 3.9676945070422533 -1.6881692957746468 -3.314052957746479
H 4.795084507042254 -2.398849295774647 -3.4044129577464783
H 3.548404507042253 -1.4816192957746468 -4.303802957746479
H 4.307714507042253 -0.7637192957746466 -2.851282957746479
C 2.344694507042253 -3.565079295774647 -3.101282957746479
H 1.6334345070422536 -4.047909295774646 -2.4251929577464786
H 1.8561845070422536 -3.293109295774647 -4.041792957746479
H 3.1808045070422537 -4.243519295774647 -3.298122957746479
C 3.5156645070422536 -2.648489295774647 -1.1110629577464786
H 3.9311845070422535 -1.748249295774647 -0.6771029577464787
H 2.767184507042254 -3.1044092957746465 -0.45972295774647876
H 4.319224507042254 -3.371819295774647 -1.2863129577464787
C 2.963994507042253 3.381090704225353 2.401027042253521
H 3.3337945070422537 4.369820704225353 2.6912870422535216
H 3.120994507042253 2.671350704225353 3.2183370422535216
H 3.4665445070422534 3.0664207042253535 1.4881370422535212
C 1.2973745070422538 4.282440704225354 0.8488370422535213
H 1.7592145070422538 3.7367207042253527 0.02653704225352116
H 0.23311450704225378 4.4484607042253534 0.6605570422535213
H 1.7921845070422535 5.251370704225354 0.9736770422535213
C 0.7724845070422537 4.194670704225353 3.2772470422535216
H -0.2956954929577462 4.278220704225354 3.057857042253521
H 0.9298945070422537 3.612620704225354 4.190337042253521
H 1.2046345070422537 5.193640704225353 3.3918370422535213
N 2.876084507042253 -2.324759295774647 -2.4576629577464786
N 1.4527845070422536 3.504690704225353 2.1388470422535213
C -3.593905492957746 -3.637819295774647 0.8297870422535213
H -2.8952554929577463 -1.8680692957746468 1.7595270422535212
H -5.022615492957747 -1.2402792957746467 1.1579970422535213
H -4.898275492957747 -1.7933092957746464 -0.48931295774647876
H -3.883675492957746 0.07871070422535364 -1.2758929577464788
H -3.8751654929577466 -4.038529295774646 -0.1505529577464788
H -4.4603554929577465 -3.7321892957746465 1.4932570422535212
H -2.7953554929577464 -4.271929295774647 1.2313670422535212
H -5.648775492957746 1.147700704225353 0.9733970422535213
H -6.189795492957747 0.5254307042253537 -0.5943629577464788
H -5.2178854929577465 2.002970704225354 -0.5139729577464787
C 3.6710445070422537 1.0263707042253536 -0.27764295774647874
O 2.7356545070422538 1.6631507042253526 -0.7327029577464788
O 3.650814507042253 0.3883007042253537 0.7790570422535212
O 4.756604507042254 0.8696707042253538 -0.8334829577464786
O 3.924872608652377 0.9036024411165295 12.217549998953148
H 3.7663637623128032 1.5214143991941143 12.947036590323023
H 3.538303693931919 0.07097616353772088 12.527807795562843
O -2.901610453720048 -7.318579485463059 7.965325655237563
H -2.828858374719114 -7.298831227308003 6.999259147071131
H -2.0543328546610566 -6.961476388758662 8.271201435182562
O 3.224803990502825 -9.163321258604045 -4.951100250191108
H 3.6963458887138403 -9.302064061564955 -4.116015805504165
H 3.4925034546136633 -8.273536615371663 -5.226022475343232
O -6.295465832171173 -14.39913967036647 -1.6078218317076223
H -6.8731662871142944 -14.98651520166938 -1.09770466233853
H -6.7861233895432935 -13.564465069785168 -1.6470062270464187
O 1.7746843182093297 -13.37203041696383 -1.5660201162621854
H 1.5634541188706095 -13.183897432922087 -0.6392217886294282
H 1.6242535001998322 -14.325460331742457 -1.6514830374514975
O -8.323839279067792 1.5369785146587032 -0.874143525710849
H -8.309285298621985 0.5965741626218426 -1.1073712968345222
H -7.615569536997786 1.6266224623013343 -0.21894899015737557
O 1.2651097192922436 10.322174471209829 -1.640270389354183
H 1.9556657910025494 10.47729751843654 -2.3021136555004293
H 1.706605399480646 9.789553300098891 -0.9617733762735123
O -3.435975532016381 -3.3927765724780437 10.756632865409413
H -4.292061859217639 -3.835630405089228 10.656812826235676
H -3.239409919832311 -3.473714317948213 11.702028542237327
O -3.5170796849214687 -6.576601076642904 -2.5882572042602545
H -4.07619455384122 -7.362163184538471 -2.492079790635618
H -3.065460595109127 -6.7129487755222685 -3.4346681251653273
O -1.3799773530433246 -12.654179737667025 -2.4591446250407656
H -1.3324674592491546 -12.551166687100581 -1.49680451972214
H -0.5526831255858697 -13.104064364886423 -2.687508430638843
O -4.753628921673682 11.476453106896972 -6.962333095786697
H -4.464612959108438 12.088712441453193 -7.655568724942656
H -4.212216001460018 11.718217641189094 -6.1959233463156815
O 0.7935070552286696 -6.332956379291302 -5.750473364435681
H 1.139293283696135 -6.832541540766442 -6.5053335551571845
H 0.8419022819223807 -6.959710608749648 -5.013046091961074
O -7.220203435138244 -2.483096589606285 1.4291548230101532
H -7.545803467350704 -1.6917299686522314 0.97452217222162
H -6.649173655208689 -2.1325915781925673 2.1291785166859265
O 12.62023083287497 -5.076277603554646 -3.279667708121504
H 12.949804714373705 -5.400936654812391 -4.1311046781728855
H 12.138383633810102 -5.832126004750904 -2.911593781494796
O -0.25780346422607914 5.63092369498439 -1.3737054004558256
H -0.40043679731510284 5.895225163131237 -2.2949913621025546
H 0.671324839487283 5.356842211642181 -1.350001391772392
O 5.9960678796274465 3.0840077144586684 -0.5100475730346674
H 6.475935055572274 3.6500451900356534 -1.1331819298094903
H 6.665159146765416 2.4537838033720334 -0.20329581275549247
O -0.01552583818033404 6.952898668687768 -10.596922079688246
H 0.20017469640379715 7.057572167763178 -11.535795923647825
H -0.9680874124598597 6.77519128633584 -10.594010419725748
O 5.354609873250532 -6.310735271590008 8.748812215855931
H 5.355737445028409 -6.864672157662521 7.9537524622963796
H 6.089824944183015 -6.657142288182277 9.276470175740352
O -9.436072218901034 -6.367361638330623 5.837042369298519
H -9.735795386312132 -6.531156079831195 4.930232157208594
H -9.993595436091898 -6.94813437695403 6.376331561351369
O 2.7023475860225794 10.630355270851258 -13.184268502653834
H 2.4997221904545412 10.498679106096485 -14.122656318861168
H 1.835408930795225 10.77213095593952 -12.775270987392018
O -4.3944419928208305 -4.36847550966124 -1.9655406242923519
H -4.428004253516333 -4.363655041077533 -2.933950503754371
H -5.304417541645277 -4.16907397669996 -1.6988095359386717
O -10.381066908086899 5.800224889471853 4.708060700064445
H -10.519417577924093 5.746435692291072 5.665626975223638
H -10.642534282720197 4.925148211090562 4.384274407495509
O 11.140086347075727 2.738947180318177 0.1022793379367899
H 10.721067177440203 3.1436943640729136 0.8765983998360607
H 10.411377761555501 2.2863437821353125 -0.34838229304862534
O 7.184182100415599 -12.728223463905065 -0.29496899011347644
H 7.982350699530725 -13.20824250579225 -0.027619100058685397
H 7.197924682976798 -12.771971845589068 -1.2628838442326682
C 10.675084153291698 0.11625459327869847 -0.7970773650928451
O 10.35734512537837 1.1862539154409832 -1.2294679501116978
O 10.992823181205026 -0.9537447288835859 -0.3646867800739928