146

C -5.3564454929577465 1.0091607042253532 -0.0734429577464788
C -4.079135492957747 0.16955070422535368 -0.19788295774647868
C -4.333545492957747 -1.2789292957746463 0.3017270422535212
C -3.1403854929577464 -2.1745492957746464 0.7330270422535212
C -2.905235492957746 0.902300704225353 0.41966704225352136
C -2.7423854929577463 1.056130704225354 1.8024770422535212
C -1.8861754929577463 1.3499307042253532 -0.4326129577464788
C -1.5304554929577463 1.5279207042253526 2.3254170422535214
H -3.5237954929577464 0.7301007042253529 2.484817042253521
C -0.6776454929577462 1.8010507042253527 0.08546704225352131
H -1.9759254929577463 1.2426607042253535 -1.5115229577464788
C -0.4680254929577463 1.8513207042253539 1.4698070422535212
H -1.3950654929577464 1.5446707042253527 3.404047042253521
H 0.1461845070422536 1.9972507042253538 -0.6030529577464789
C -1.8679654929577463 -2.0866092957746467 -0.08765295774647863
C -0.6628654929577462 -1.814079295774647 0.5787970422535212
C -1.8438954929577462 -2.213429295774647 -1.4808029577464787
C 0.5129345070422537 -1.5763292957746469 -0.13022295774647863
H -0.6401854929577462 -1.7032692957746463 1.6609470422535213
C -0.6547954929577462 -1.9962392957746466 -2.1933129577464787
H -2.7578654929577464 -2.4351492957746466 -2.026182957746479
C 0.5308845070422537 -1.645769295774647 -1.5261029577464789
H 1.4044045070422537 -1.2610992957746463 0.41551704225352126
H -0.6795654929577464 -2.0467992957746466 -3.2793129577464786
C 1.7843245070422535 -1.2521692957746469 -2.2771629577464787
H 1.4981245070422535 -0.9384492957746469 -3.290282957746479
H 2.241984507042254 -0.38631929577464685 -1.8135029577464787
C 0.9385645070422537 2.0647807042253534 1.9815670422535212
H 1.0508945070422537 1.5807407042253532 2.9609770422535213
H 1.6053245070422537 1.5496207042253536 1.3096170422535214
C 3.9676945070422533 -1.6881692957746468 -3.314052957746479
H 4.795084507042254 -2.398849295774647 -3.4044129577464783
H 3.548404507042253 -1.4816192957746468 -4.303802957746479
H 4.307714507042253 -0.7637192957746466 -2.851282957746479
C 2.344694507042253 -3.565079295774647 -3.101282957746479
H 1.6334345070422536 -4.047909295774646 -2.4251929577464786
H 1.8561845070422536 -3.293109295774647 -4.041792957746479
H 3.1808045070422537 -4.243519295774647 -3.298122957746479
C 3.5156645070422536 -2.648489295774647 -1.1110629577464786
H 3.9311845070422535 -1.748249295774647 -0.6771029577464787
H 2.767184507042254 -3.1044092957746465 -0.45972295774647876
H 4.319224507042254 -3.371819295774647 -1.2863129577464787
C 2.963994507042253 3.381090704225353 2.401027042253521
H 3.3337945070422537 4.369820704225353 2.6912870422535216
H 3.120994507042253 2.671350704225353 3.2183370422535216
H 3.4665445070422534 3.0664207042253535 1.4881370422535212
C 1.2973745070422538 4.282440704225354 0.8488370422535213
H 1.7592145070422538 3.7367207042253527 0.02653704225352116
H 0.23311450704225378 4.4484607042253534 0.6605570422535213
H 1.7921845070422535 5.251370704225354 0.9736770422535213
C 0.7724845070422537 4.194670704225353 3.2772470422535216
H -0.2956954929577462 4.278220704225354 3.057857042253521
H 0.9298945070422537 3.612620704225354 4.190337042253521
H 1.2046345070422537 5.193640704225353 3.3918370422535213
N 2.876084507042253 -2.324759295774647 -2.4576629577464786
N 1.4527845070422536 3.504690704225353 2.1388470422535213
C -3.593905492957746 -3.637819295774647 0.8297870422535213
H -2.8952554929577463 -1.8680692957746468 1.7595270422535212
H -5.022615492957747 -1.2402792957746467 1.1579970422535213
H -4.898275492957747 -1.7933092957746464 -0.48931295774647876
H -3.883675492957746 0.07871070422535364 -1.2758929577464788
H -3.8751654929577466 -4.038529295774646 -0.1505529577464788
H -4.4603554929577465 -3.7321892957746465 1.4932570422535212
H -2.7953554929577464 -4.271929295774647 1.2313670422535212
H -5.648775492957746 1.147700704225353 0.9733970422535213
H -6.189795492957747 0.5254307042253537 -0.5943629577464788
H -5.2178854929577465 2.002970704225354 -0.5139729577464787
C 3.6710445070422537 1.0263707042253536 -0.27764295774647874
O 2.7356545070422538 1.6631507042253526 -0.7327029577464788
O 3.650814507042253 0.3883007042253537 0.7790570422535212
O 4.756604507042254 0.8696707042253538 -0.8334829577464786
O -6.331156824772177 7.367652718002345 2.785494812230628
H -5.642060425514129 6.922345508352375 3.3010673080673945
H -6.592270882241378 6.708338410684652 2.1251267046889635
O -9.426839152783888 -1.543774262351803 -3.3457218326566838
H -9.3525513949472 -1.4600741471678806 -4.308240911248789
H -8.520310297453747 -1.4142891383640315 -3.0288606936388236
O -3.14592140553069 10.545673263259783 -2.9393890258909643
H -3.3557558071007456 9.8023415414836 -3.5245341636294496
H -3.1647094324387632 11.317279171443166 -3.525250167119324
O 6.687912201329144 -2.160421887526207 3.429161440595274
H 6.0157757826788885 -2.817337681906952 3.665088613081034
H 6.513054378081564 -1.9717844547529049 2.4949223893317254
O 1.8033192358501204 6.21780420485327 -4.156092039438037
H 1.0475309201107845 6.175391957749715 -4.761032185227293
H 2.4685807612136226 5.64946384468146 -4.5724792176397715
O 2.107868608812142 5.0148985464230496 10.773087725012255
H 1.9633298347289458 4.577829744648487 11.62575809637617
H 2.9957325557028756 4.728691732611013 10.51089463616518
O -7.27192227006928 8.215540471283377 1.1408475803897105
H -7.4195145994314045 9.108241531883774 0.7940498329685504
H -7.757285173055921 8.207025484205836 1.9794847437085377
O 11.732627642709996 0.3503689969731605 -5.086895609117978
H 12.00201730720805 0.530272806380121 -4.173642530873785
H 12.568438565331903 0.1898823363361526 -5.550173147623241
O -3.134733934893271 6.073195295754041 13.050420537382617
H -3.2590983249697763 6.9618965535502335 13.416085588723819
H -2.1745454969816684 5.9442922433108825 13.070019289172286
O 10.218352379171188 6.167541516185555 -8.274837250756342
H 10.658716971857965 5.501069746917985 -8.823345922681558
H 10.852499539482944 6.340995203574247 -7.562985340806101
O 4.85457828418601 4.196020641498389 8.815566971910112
H 3.9461183193894747 3.8920923731168076 8.669637341812402
H 5.3739679742304745 3.378323987906345 8.83940972510447
O -7.476512375159345 3.72848181079956 -9.156182920961871
H -7.943636092467143 3.6225034670459193 -9.998519777738172
H -8.096546585846957 4.2305762731856955 -8.606255041401136
O 4.7602292272232 6.559168660880016 2.102239387076079
H 3.8573518400354803 6.245158194570647 2.2609126603556415
H 4.822914398245563 6.613353508896655 1.1367879300471355
O -8.464058358087135 5.828980170698943 -0.830596258288077
H -8.053401687101477 6.355477286656196 -0.12836464239224377
H -8.203199183455249 6.282554486595296 -1.6461848649210578
O -3.4542152867267046 -2.4511006947522853 -5.271676096344169
H -3.0962911235316914 -1.6743022923571989 -5.72713398938983
H -4.212340977128742 -2.712642237334925 -5.815554210774165
O -8.15250607613745 9.148242940781074 -8.828616718371357
H -9.01215788340714 9.587873465768276 -8.910416037790498
H -7.524334418454055 9.879258819203649 -8.728726287010957
O 1.2555509824421223 11.241364910242055 -6.028539159599186
H 1.2580956049361105 11.203284554876781 -5.060287762320762
H 0.5416979604217667 10.638209725046938 -6.284624359922528
O 7.979752824323399 -4.8883589100797575 -4.141967227351421
H 7.614406234391939 -4.601558203254268 -3.291535230840322
H 8.487640079628711 -4.122294350343411 -4.448818283263556
O -0.9622785210546926 7.166337891301785 6.582794843856128
H -0.0720556567928784 6.7926738820533075 6.500055391127422
H -1.4731428556817032 6.461840542964592 7.009014343752559
O -4.612164435206302 3.273258028591137 -10.1072356728183
H -5.089372070940143 2.4852222134227535 -9.806836299800942
H -3.718212662508325 3.1549301978814275 -9.75253763663868
O -4.344153935160547 2.5115207797996026 8.30895093871582
H -4.302325120558909 2.6442753410782074 7.349996334144391
H -3.7458396788714614 3.185541870639484 8.664868856393834
O -0.26750418466259784 -12.517171899512247 -4.151171378196685
H -0.8313792230318964 -13.250702344295664 -3.8631689744222326
H 0.03077333499619561 -12.783783151232715 -5.033730671401533
O 3.775861265021095 -2.38699854943033 1.3875374117079038
H 3.2509639624055398 -1.573774616660113 1.4335484296998702
H 4.03333631010641 -2.5517298650171893 2.3070656272202594
O -7.8115796944851414 -2.6838414145556992 6.3886437516197425
H -7.901255546825913 -1.7424655703152436 6.600155260260589
H -7.512980547717838 -2.6892038341173 5.466813106486765
C 1.8060898094169082 -1.8603604388928623 8.603722795569258
O 1.607737075880212 -2.9665195301625564 8.191549876517161
O 2.0044425429536052 -0.7542013476231688 9.015895714621353