146

C -5.3564454929577465 1.0091607042253532 -0.0734429577464788
C -4.079135492957747 0.16955070422535368 -0.19788295774647868
C -4.333545492957747 -1.2789292957746463 0.3017270422535212
C -3.1403854929577464 -2.1745492957746464 0.7330270422535212
C -2.905235492957746 0.902300704225353 0.41966704225352136
C -2.7423854929577463 1.056130704225354 1.8024770422535212
C -1.8861754929577463 1.3499307042253532 -0.4326129577464788
C -1.5304554929577463 1.5279207042253526 2.3254170422535214
H -3.5237954929577464 0.7301007042253529 2.484817042253521
C -0.6776454929577462 1.8010507042253527 0.08546704225352131
H -1.9759254929577463 1.2426607042253535 -1.5115229577464788
C -0.4680254929577463 1.8513207042253539 1.4698070422535212
H -1.3950654929577464 1.5446707042253527 3.404047042253521
H 0.1461845070422536 1.9972507042253538 -0.6030529577464789
C -1.8679654929577463 -2.0866092957746467 -0.08765295774647863
C -0.6628654929577462 -1.814079295774647 0.5787970422535212
C -1.8438954929577462 -2.213429295774647 -1.4808029577464787
C 0.5129345070422537 -1.5763292957746469 -0.13022295774647863
H -0.6401854929577462 -1.7032692957746463 1.6609470422535213
C -0.6547954929577462 -1.9962392957746466 -2.1933129577464787
H -2.7578654929577464 -2.4351492957746466 -2.026182957746479
C 0.5308845070422537 -1.645769295774647 -1.5261029577464789
H 1.4044045070422537 -1.2610992957746463 0.41551704225352126
H -0.6795654929577464 -2.0467992957746466 -3.2793129577464786
C 1.7843245070422535 -1.2521692957746469 -2.2771629577464787
H 1.4981245070422535 -0.9384492957746469 -3.290282957746479
H 2.241984507042254 -0.38631929577464685 -1.8135029577464787
C 0.9385645070422537 2.0647807042253534 1.9815670422535212
H 1.0508945070422537 1.5807407042253532 2.9609770422535213
H 1.6053245070422537 1.5496207042253536 1.3096170422535214
C 3.9676945070422533 -1.6881692957746468 -3.314052957746479
H 4.795084507042254 -2.398849295774647 -3.4044129577464783
H 3.548404507042253 -1.4816192957746468 -4.303802957746479
H 4.307714507042253 -0.7637192957746466 -2.851282957746479
C 2.344694507042253 -3.565079295774647 -3.101282957746479
H 1.6334345070422536 -4.047909295774646 -2.4251929577464786
H 1.8561845070422536 -3.293109295774647 -4.041792957746479
H 3.1808045070422537 -4.243519295774647 -3.298122957746479
C 3.5156645070422536 -2.648489295774647 -1.1110629577464786
H 3.9311845070422535 -1.748249295774647 -0.6771029577464787
H 2.767184507042254 -3.1044092957746465 -0.45972295774647876
H 4.319224507042254 -3.371819295774647 -1.2863129577464787
C 2.963994507042253 3.381090704225353 2.401027042253521
H 3.3337945070422537 4.369820704225353 2.6912870422535216
H 3.120994507042253 2.671350704225353 3.2183370422535216
H 3.4665445070422534 3.0664207042253535 1.4881370422535212
C 1.2973745070422538 4.282440704225354 0.8488370422535213
H 1.7592145070422538 3.7367207042253527 0.02653704225352116
H 0.23311450704225378 4.4484607042253534 0.6605570422535213
H 1.7921845070422535 5.251370704225354 0.9736770422535213
C 0.7724845070422537 4.194670704225353 3.2772470422535216
H -0.2956954929577462 4.278220704225354 3.057857042253521
H 0.9298945070422537 3.612620704225354 4.190337042253521
H 1.2046345070422537 5.193640704225353 3.3918370422535213
N 2.876084507042253 -2.324759295774647 -2.4576629577464786
N 1.4527845070422536 3.504690704225353 2.1388470422535213
C -3.593905492957746 -3.637819295774647 0.8297870422535213
H -2.8952554929577463 -1.8680692957746468 1.7595270422535212
H -5.022615492957747 -1.2402792957746467 1.1579970422535213
H -4.898275492957747 -1.7933092957746464 -0.48931295774647876
H -3.883675492957746 0.07871070422535364 -1.2758929577464788
H -3.8751654929577466 -4.038529295774646 -0.1505529577464788
H -4.4603554929577465 -3.7321892957746465 1.4932570422535212
H -2.7953554929577464 -4.271929295774647 1.2313670422535212
H -5.648775492957746 1.147700704225353 0.9733970422535213
H -6.189795492957747 0.5254307042253537 -0.5943629577464788
H -5.2178854929577465 2.002970704225354 -0.5139729577464787
C 3.6710445070422537 1.0263707042253536 -0.27764295774647874
O 2.7356545070422538 1.6631507042253526 -0.7327029577464788
O 3.650814507042253 0.3883007042253537 0.7790570422535212
O 4.756604507042254 0.8696707042253538 -0.8334829577464786
O -6.85301377683622 4.842997206262254 -9.73296971866381
H -6.580832821911506 5.199971104907111 -10.591721440852805
H -6.031912394144723 4.496365631150648 -9.352705317519344
O 9.518888063648646 7.581874618393286 1.787233756343202
H 10.21254129253159 7.692177075927264 1.119666589069202
H 8.84316514758527 7.052701196013316 1.3374160443159013
O 4.257516096973017 -7.196528722912654 2.060820021350142
H 3.9886273475431295 -7.264564042615502 2.989279709545038
H 4.432101072342161 -8.113270872976592 1.7999256730566149
O -7.585875559758354 -10.291593872904196 3.936490423824171
H -8.515712614515873 -10.01918958201474 3.9235942691695582
H -7.103956888552929 -9.4913855466991 3.6788414895829535
O -11.593420620176094 0.37067346749762464 -0.14790901553832825
H -11.548547050003709 -0.2994657501472471 0.5505658577207644
H -11.899168042519339 -0.12113144950096189 -0.9248313936730264
O -10.052895241075662 -4.9580065158546915 4.81659787678489
H -10.069975060872766 -4.445609228407119 3.9943298812554096
H -9.130379708173452 -5.243959640007167 4.8950698249039
O -0.3202108439089626 -7.825930371195738 -0.4884149223277783
H -0.2269090405241525 -7.389656959420914 -1.348605389935679
H -1.2676630375329214 -7.7625097508932495 -0.2953498814281015
O -2.221689678553772 13.297678965935468 10.71244049498849
H -2.344802787431843 13.28208196119722 11.673464559601635
H -1.3126834319034542 12.986003118010844 10.587830087432902
O 7.19981613594555 -7.1574703614108826 -7.983764430042821
H 8.155934990629822 -7.071242184799788 -7.851973708914345
H 6.8161325875356225 -6.643396382020435 -7.257488433817396
O 0.9505204739232869 -10.984438409325763 -4.857844729043306
H 0.6526457068634346 -10.940194302925764 -3.936823318272685
H 0.39156781103577853 -10.338888106507188 -5.315882578442031
O 10.4761586186571 -7.247480558028708 0.6099028806852773
H 9.6229525353209 -7.416444264116396 0.18275185085716417
H 10.278381003435356 -7.300793181222042 1.5570056857837757
O -2.0267947246222766 5.410046309222109 0.2535478327341081
H -2.9230305531574783 5.041632555146244 0.25349927811723294
H -1.673834901866258 5.167139896311534 -0.6155768892632336
O 1.7134105397411323 9.74169373371677 -4.950500157266023
H 1.6459208783058692 9.695555284292649 -3.984951740052214
H 1.8388789228522657 8.819620599313808 -5.2206866927406335
O -1.1742715887440447 -3.1112124707743622 3.8075876520471095
H -0.627313867616312 -3.8686145410899413 3.5503976209797443
H -1.5645187914492567 -2.8102693305546644 2.9732602034782256
O 2.957400540549746 8.581241416634878 2.4175957800064882
H 2.9738098772912656 8.16090949006075 3.2905328694179694
H 2.4186060444006676 7.98207031449946 1.879398394667903
O 3.7603809375488186 6.888322125139821 11.05867709564332
H 3.781975997848207 6.86312777488615 12.027112046987995
H 4.609278723588407 6.502218164016689 10.795507522246028
O -11.925073638809012 6.225911065830404 -2.3304536787346946
H -11.318748231809197 6.504732168046665 -1.6278900512350774
H -11.398294003053778 6.306252697267777 -3.139780795487595
O -1.8966974241018788 4.748242936684532 -8.234127543784247
H -2.2646085024007467 4.713372877197802 -9.129891393421168
H -1.1989375959822401 5.417987173935672 -8.293590332411586
O -7.892140443200311 4.003569848438658 1.251845945345604
H -7.942668708200138 4.389312199572492 2.1393238830307326
H -8.644169510915125 3.393394079954052 1.2186833585012622
O 1.4368148964519518 10.779497741432559 8.03305333418751
H 1.48657408275235 10.976648528259906 7.085623681109204
H 1.7617873863117914 9.869077481706556 8.100059123599566
O -7.135458657583694 -0.527599119039039 4.6073167070850864
H -7.166106485199336 -0.7498339400840559 5.549993614555261
H -6.885858225811797 -1.3599849893262657 4.1786031293837755
O -6.529750659269666 -10.115888720631322 1.192889908806923
H -6.846285376666078 -9.866968632059102 0.3115205656323532
H -6.366858602983313 -9.26727392645751 1.6313885443899068
O 11.358311911599856 4.958907499689893 -2.0992910257741455
H 10.855494583613343 4.371977969666022 -2.6838043432977603
H 12.27642360241571 4.846319380099956 -2.388006773204822
O 9.967556122516038 -5.848143033918055 -6.270788307268269
H 9.953484308036327 -5.474077345589652 -5.377007460666236
H 9.50236288544024 -6.693122197696223 -6.1782280066005955
C 3.6692025800235544 8.422630919094678 7.097823716676534
O 2.7418716200459587 7.7024716692596265 7.330731859179215
O 4.596533540001149 9.142790168929729 6.864915574173853