146

C -5.3564454929577465 1.0091607042253532 -0.0734429577464788
C -4.079135492957747 0.16955070422535368 -0.19788295774647868
C -4.333545492957747 -1.2789292957746463 0.3017270422535212
C -3.1403854929577464 -2.1745492957746464 0.7330270422535212
C -2.905235492957746 0.902300704225353 0.41966704225352136
C -2.7423854929577463 1.056130704225354 1.8024770422535212
C -1.8861754929577463 1.3499307042253532 -0.4326129577464788
C -1.5304554929577463 1.5279207042253526 2.3254170422535214
H -3.5237954929577464 0.7301007042253529 2.484817042253521
C -0.6776454929577462 1.8010507042253527 0.08546704225352131
H -1.9759254929577463 1.2426607042253535 -1.5115229577464788
C -0.4680254929577463 1.8513207042253539 1.4698070422535212
H -1.3950654929577464 1.5446707042253527 3.404047042253521
H 0.1461845070422536 1.9972507042253538 -0.6030529577464789
C -1.8679654929577463 -2.0866092957746467 -0.08765295774647863
C -0.6628654929577462 -1.814079295774647 0.5787970422535212
C -1.8438954929577462 -2.213429295774647 -1.4808029577464787
C 0.5129345070422537 -1.5763292957746469 -0.13022295774647863
H -0.6401854929577462 -1.7032692957746463 1.6609470422535213
C -0.6547954929577462 -1.9962392957746466 -2.1933129577464787
H -2.7578654929577464 -2.4351492957746466 -2.026182957746479
C 0.5308845070422537 -1.645769295774647 -1.5261029577464789
H 1.4044045070422537 -1.2610992957746463 0.41551704225352126
H -0.6795654929577464 -2.0467992957746466 -3.2793129577464786
C 1.7843245070422535 -1.2521692957746469 -2.2771629577464787
H 1.4981245070422535 -0.9384492957746469 -3.290282957746479
H 2.241984507042254 -0.38631929577464685 -1.8135029577464787
C 0.9385645070422537 2.0647807042253534 1.9815670422535212
H 1.0508945070422537 1.5807407042253532 2.9609770422535213
H 1.6053245070422537 1.5496207042253536 1.3096170422535214
C 3.9676945070422533 -1.6881692957746468 -3.314052957746479
H 4.795084507042254 -2.398849295774647 -3.4044129577464783
H 3.548404507042253 -1.4816192957746468 -4.303802957746479
H 4.307714507042253 -0.7637192957746466 -2.851282957746479
C 2.344694507042253 -3.565079295774647 -3.101282957746479
H 1.6334345070422536 -4.047909295774646 -2.4251929577464786
H 1.8561845070422536 -3.293109295774647 -4.041792957746479
H 3.1808045070422537 -4.243519295774647 -3.298122957746479
C 3.5156645070422536 -2.648489295774647 -1.1110629577464786
H 3.9311845070422535 -1.748249295774647 -0.6771029577464787
H 2.767184507042254 -3.1044092957746465 -0.45972295774647876
H 4.319224507042254 -3.371819295774647 -1.2863129577464787
C 2.963994507042253 3.381090704225353 2.401027042253521
H 3.3337945070422537 4.369820704225353 2.6912870422535216
H 3.120994507042253 2.671350704225353 3.2183370422535216
H 3.4665445070422534 3.0664207042253535 1.4881370422535212
C 1.2973745070422538 4.282440704225354 0.8488370422535213
H 1.7592145070422538 3.7367207042253527 0.02653704225352116
H 0.23311450704225378 4.4484607042253534 0.6605570422535213
H 1.7921845070422535 5.251370704225354 0.9736770422535213
C 0.7724845070422537 4.194670704225353 3.2772470422535216
H -0.2956954929577462 4.278220704225354 3.057857042253521
H 0.9298945070422537 3.612620704225354 4.190337042253521
H 1.2046345070422537 5.193640704225353 3.3918370422535213
N 2.876084507042253 -2.324759295774647 -2.4576629577464786
N 1.4527845070422536 3.504690704225353 2.1388470422535213
C -3.593905492957746 -3.637819295774647 0.8297870422535213
H -2.8952554929577463 -1.8680692957746468 1.7595270422535212
H -5.022615492957747 -1.2402792957746467 1.1579970422535213
H -4.898275492957747 -1.7933092957746464 -0.48931295774647876
H -3.883675492957746 0.07871070422535364 -1.2758929577464788
H -3.8751654929577466 -4.038529295774646 -0.1505529577464788
H -4.4603554929577465 -3.7321892957746465 1.4932570422535212
H -2.7953554929577464 -4.271929295774647 1.2313670422535212
H -5.648775492957746 1.147700704225353 0.9733970422535213
H -6.189795492957747 0.5254307042253537 -0.5943629577464788
H -5.2178854929577465 2.002970704225354 -0.5139729577464787
C 3.6710445070422537 1.0263707042253536 -0.27764295774647874
O 2.7356545070422538 1.6631507042253526 -0.7327029577464788
O 3.650814507042253 0.3883007042253537 0.7790570422535212
O 4.756604507042254 0.8696707042253538 -0.8334829577464786
O 6.784332718926185 -5.081689277055845 7.4075665986349835
H 6.945445072248331 -4.404787235320173 8.081965436416512
H 7.223326716254169 -4.7335583387787405 6.616964888274893
O -0.7631601935677681 5.0950436304065745 14.663390812827648
H -0.5118980638472115 5.757895613991124 14.002738145440073
H -0.5978123487440286 4.249049273245685 14.2207672908995
O 7.1412063095756455 3.9718010445519023 -2.7662969859530984
H 6.743435155517269 3.902853078844765 -3.6472008648887724
H 7.714746401718166 4.750334041180413 -2.828747607773683
O 3.0745690090823192 3.577188173179895 5.166963093918505
H 2.38221930697383 3.331885330402192 5.7989803106266145
H 3.735894355914208 4.032644442970411 5.709337794882876
O -2.3030134804923033 -9.75681113030747 -0.8345871302599275
H -2.4852200069713106 -10.690611027907545 -1.0183965148150762
H -2.99196448424102 -9.504057310453327 -0.20179651300744794
O 3.470855845755248 3.165943044934086 -10.208705733441388
H 4.3014380255576965 2.84624421420845 -10.591972294893434
H 3.7161862004786874 4.000206286419598 -9.781178184320446
O 10.276863799002175 -0.5551298058851994 5.041840287243892
H 10.409501388345879 0.12361288062938502 5.720576607397792
H 9.797748183549757 -0.09209329527012589 4.3382726919361865
O -8.721645678223508 4.322313019664731 -8.240046249245069
H -8.702041745442244 4.362311893043968 -7.272067358541403
H -8.87710469047363 3.3854245079269902 -8.432489374308188
O 12.077549979287156 -3.439517265125573 -2.0651843878404303
H 12.903806375714336 -3.0728166893109625 -1.7161880956532443
H 12.236475561229332 -3.508769073611867 -3.018551468626062
O -7.673329910640344 1.8419102741654947 -11.040703936695415
H -8.570682019313095 2.203211744286697 -11.097164521609388
H -7.490971322717037 1.8157530804663153 -10.08937692092828
O 1.688023681311411 0.626723722542121 7.917757386565162
H 1.5870968630788562 0.4762362886158845 6.965846326385825
H 1.5751400739361388 -0.2533969104784808 8.307124702627206
O -2.2032719263922154 5.214497186191296 4.349673459536172
H -2.299015941649952 5.1752361080779785 3.3862114684915285
H -1.442110457444884 4.643450994980106 4.5327073634805854
O 4.932829897584321 4.081872629092707 -2.6326639757811297
H 4.959353424394844 4.164896399714601 -3.5977395753779984
H 4.864641711112841 4.996785242212106 -2.3208191010745494
O -4.979118805470865 -13.105287745875781 3.0621387888867777
H -5.265798527189122 -13.455418535912015 3.9189879727716375
H -4.024043273227441 -13.26854215670113 3.0502783775952103
O -0.23369949488524588 5.188447461706628 6.991914427134991
H -0.8948193559136711 4.947706518160792 7.658196412749503
H 0.19645163368309848 4.347792598530832 6.774586674856861
O -6.039465705161213 10.19597030586975 -1.4229105632449488
H -5.969619192655867 10.171015733281417 -2.38907105244836
H -6.62155423764977 9.450833856285064 -1.210998892623332
O -8.80397578771605 -4.841235266286572 -6.267247944026827
H -8.974241996191473 -4.092540282649599 -6.858376184452066
H -7.866366757060452 -5.041680084550212 -6.407508860765324
O 3.3435258691048606 14.796221258940282 -2.911858224971671
H 4.144775255886418 15.157169522315199 -3.320126676176036
H 2.699271162875676 15.516425984097427 -2.9839898523127344
O 4.5571488069643085 -2.74781695411717 7.994326878782905
H 4.646575757485915 -3.179182488842645 8.857399270226065
H 3.7482330724504105 -3.1314645287572302 7.623608903458482
O -6.1985975258240815 10.601694099635573 2.3507492374744547
H -6.141863426118313 10.829361541554462 3.2909173792026696
H -5.971897747077564 9.659968533166516 2.3238770943739535
O -6.44617416048995 12.987405785644249 -1.8650668766565506
H -6.9652675147389385 13.419957796357844 -2.5596229971408233
H -6.795203907295416 12.083783783568977 -1.8404202235289615
O -0.0987265716846899 -8.992411254115664 2.848768501642991
H 0.45719771517066965 -8.366822517519552 2.3603483169367885
H -1.0001901436064529 -8.770859871751034 2.5708470059461384
O 8.224267857001198 -3.4131004077946114 -3.529946233216906
H 7.4745854000475695 -3.9694477278286384 -3.2702902490244976
H 8.290899477969427 -2.761809307493694 -2.8155639307653644
O 3.502987464020926 3.5576971107636064 -6.643931896698425
H 2.8164108145729174 3.9742357325716675 -7.186219124904095
H 3.275761837493114 2.615877600370084 -6.66143814675798
C 7.141543888480037 0.9656194508478402 -8.277623669167454
O 7.547433470302312 -0.11930655024544556 -8.579298124201138
O 6.735654306657761 2.0505454519411255 -7.975949214133769