146

C -5.3564454929577465 1.0091607042253532 -0.0734429577464788
C -4.079135492957747 0.16955070422535368 -0.19788295774647868
C -4.333545492957747 -1.2789292957746463 0.3017270422535212
C -3.1403854929577464 -2.1745492957746464 0.7330270422535212
C -2.905235492957746 0.902300704225353 0.41966704225352136
C -2.7423854929577463 1.056130704225354 1.8024770422535212
C -1.8861754929577463 1.3499307042253532 -0.4326129577464788
C -1.5304554929577463 1.5279207042253526 2.3254170422535214
H -3.5237954929577464 0.7301007042253529 2.484817042253521
C -0.6776454929577462 1.8010507042253527 0.08546704225352131
H -1.9759254929577463 1.2426607042253535 -1.5115229577464788
C -0.4680254929577463 1.8513207042253539 1.4698070422535212
H -1.3950654929577464 1.5446707042253527 3.404047042253521
H 0.1461845070422536 1.9972507042253538 -0.6030529577464789
C -1.8679654929577463 -2.0866092957746467 -0.08765295774647863
C -0.6628654929577462 -1.814079295774647 0.5787970422535212
C -1.8438954929577462 -2.213429295774647 -1.4808029577464787
C 0.5129345070422537 -1.5763292957746469 -0.13022295774647863
H -0.6401854929577462 -1.7032692957746463 1.6609470422535213
C -0.6547954929577462 -1.9962392957746466 -2.1933129577464787
H -2.7578654929577464 -2.4351492957746466 -2.026182957746479
C 0.5308845070422537 -1.645769295774647 -1.5261029577464789
H 1.4044045070422537 -1.2610992957746463 0.41551704225352126
H -0.6795654929577464 -2.0467992957746466 -3.2793129577464786
C 1.7843245070422535 -1.2521692957746469 -2.2771629577464787
H 1.4981245070422535 -0.9384492957746469 -3.290282957746479
H 2.241984507042254 -0.38631929577464685 -1.8135029577464787
C 0.9385645070422537 2.0647807042253534 1.9815670422535212
H 1.0508945070422537 1.5807407042253532 2.9609770422535213
H 1.6053245070422537 1.5496207042253536 1.3096170422535214
C 3.9676945070422533 -1.6881692957746468 -3.314052957746479
H 4.795084507042254 -2.398849295774647 -3.4044129577464783
H 3.548404507042253 -1.4816192957746468 -4.303802957746479
H 4.307714507042253 -0.7637192957746466 -2.851282957746479
C 2.344694507042253 -3.565079295774647 -3.101282957746479
H 1.6334345070422536 -4.047909295774646 -2.4251929577464786
H 1.8561845070422536 -3.293109295774647 -4.041792957746479
H 3.1808045070422537 -4.243519295774647 -3.298122957746479
C 3.5156645070422536 -2.648489295774647 -1.1110629577464786
H 3.9311845070422535 -1.748249295774647 -0.6771029577464787
H 2.767184507042254 -3.1044092957746465 -0.45972295774647876
H 4.319224507042254 -3.371819295774647 -1.2863129577464787
C 2.963994507042253 3.381090704225353 2.401027042253521
H 3.3337945070422537 4.369820704225353 2.6912870422535216
H 3.120994507042253 2.671350704225353 3.2183370422535216
H 3.4665445070422534 3.0664207042253535 1.4881370422535212
C 1.2973745070422538 4.282440704225354 0.8488370422535213
H 1.7592145070422538 3.7367207042253527 0.02653704225352116
H 0.23311450704225378 4.4484607042253534 0.6605570422535213
H 1.7921845070422535 5.251370704225354 0.9736770422535213
C 0.7724845070422537 4.194670704225353 3.2772470422535216
H -0.2956954929577462 4.278220704225354 3.057857042253521
H 0.9298945070422537 3.612620704225354 4.190337042253521
H 1.2046345070422537 5.193640704225353 3.3918370422535213
N 2.876084507042253 -2.324759295774647 -2.4576629577464786
N 1.4527845070422536 3.504690704225353 2.1388470422535213
C -3.593905492957746 -3.637819295774647 0.8297870422535213
H -2.8952554929577463 -1.8680692957746468 1.7595270422535212
H -5.022615492957747 -1.2402792957746467 1.1579970422535213
H -4.898275492957747 -1.7933092957746464 -0.48931295774647876
H -3.883675492957746 0.07871070422535364 -1.2758929577464788
H -3.8751654929577466 -4.038529295774646 -0.1505529577464788
H -4.4603554929577465 -3.7321892957746465 1.4932570422535212
H -2.7953554929577464 -4.271929295774647 1.2313670422535212
H -5.648775492957746 1.147700704225353 0.9733970422535213
H -6.189795492957747 0.5254307042253537 -0.5943629577464788
H -5.2178854929577465 2.002970704225354 -0.5139729577464787
C 3.6710445070422537 1.0263707042253536 -0.27764295774647874
O 2.7356545070422538 1.6631507042253526 -0.7327029577464788
O 3.650814507042253 0.3883007042253537 0.7790570422535212
O 4.756604507042254 0.8696707042253538 -0.8334829577464786
O -8.490827699107879 2.322864226150318 9.957958823027276
H -8.443090041913152 2.3118421923807246 10.925722734194222
H -7.604765453680287 2.0493803199355938 9.676778819169696
O -3.4898030570469936 9.616130191729797 -6.870895878399863
H -3.497552417137444 9.642003225422748 -5.9022690718093616
H -3.9769217032451065 10.412641086294865 -7.13021761614136
O 4.829368675948723 4.318816566043388 5.533919714122808
H 5.160104648582371 4.658451799032988 6.379040404804427
H 4.408605133199395 5.087923040843648 5.1211301602174935
O -13.146268081795181 -0.5574080888509263 -4.498276130147679
H -13.536793308952221 -0.07423307091380149 -5.241915361156509
H -13.870290857615975 -1.1143744370618514 -4.17494742533888
O -2.8499552291205554 2.3100078855040356 -3.198653244376069
H -2.841708500232361 1.3837325465371133 -2.9142005333952112
H -1.9415452017911845 2.4721261682024256 -3.49440792136762
O -3.103972966399967 1.015574167160596 11.413811683485076
H -3.0074939534898286 1.1134506768036838 12.373019349127908
H -3.770408364569807 0.319043961655211 11.31546801472683
O 5.143562279850606 -4.749112812600673 4.785719021457925
H 4.708101017659377 -5.6139163594995845 4.823872282155861
H 5.9816430114027215 -4.928799432538043 4.3337285897931
O -4.822461759599868 0.9094872105470995 -4.249450317327814
H -4.362657566988297 0.5190132467857778 -3.4911116429999494
H -5.736732518060989 1.0074762168123383 -3.943723185437176
O -2.7420227202114162 0.7586321887624331 5.385408967274586
H -2.5995795052759667 -0.14051992981550449 5.0534409641844364
H -2.218725038852705 0.7929382583310856 6.200236908974762
O 6.813275155376162 2.915024200034645 -1.466103791057583
H 7.000320153637326 2.020364859796573 -1.1442867771346714
H 7.264147988247362 2.9545956989430087 -2.3229058273254966
O 1.508849753832436 7.956659307172581 5.011289834782279
H 2.311687271017437 7.896068156203352 5.55050035983205
H 1.2832269985709415 7.033325366418862 4.822846871367825
O 10.314496584898897 -2.7665333688381404 1.1728822289166638
H 10.962659521447286 -2.051994718479148 1.2639134418500495
H 10.312688405922703 -2.9613772550928057 0.22367490974030524
O 3.10850235609402 -0.4292853823055536 11.715152883459226
H 3.1958174562537107 0.30377699559770655 11.08748817974639
H 3.271788989476119 -0.019429344382920988 12.577891226085253
O 7.743664840766694 5.962727823588631 1.2490085320281235
H 7.384479666620145 5.751288583112633 2.123792399712163
H 8.433712852829895 5.296373609661218 1.1120131053570002
O -6.000062315011963 9.601783176598436 -9.237872237048869
H -6.749845774469913 9.216715338829676 -8.759839935693238
H -5.257371031472568 9.020367830037797 -9.015773618326516
O 2.6215673840612324 7.8036118145473585 2.8857619680390303
H 2.595669224821866 7.155543419745026 3.6056952968315947
H 1.694673637262821 8.060890811748394 2.7689825004720365
O 7.268366283412433 10.239760784526379 2.2401588124332874
H 7.078768085977156 10.123641697122938 1.297006524639908
H 8.227616753432693 10.117798252038277 2.302813586672769
O -4.30501740259056 -7.82048134880646 3.3837308676456628
H -4.640127109532822 -7.605546940372525 2.500287580680265
H -3.3429260672293903 -7.84207967309645 3.2702596417299103
O 2.1055222236348428 0.7774542598158436 10.097412612953493
H 1.2610062852235955 1.2216911588753274 9.928848784735855
H 2.7602778866794253 1.349096690533901 9.669064743326715
O -5.334263356526799 -5.731073421805172 4.936041034371045
H -5.138012080568869 -5.2389635474326814 5.7473860073202685
H -6.292508815781223 -5.634205592722023 4.829531843185513
O 5.005154616569932 1.572855655455572 1.8146949378520478
H 4.772122926883635 2.1640503979208967 2.5462360269121973
H 5.736088782158458 1.0425425942412958 2.1660711564283033
O -5.187121390216638 -6.1906700734869675 -8.88220226103969
H -4.745831680304303 -6.8282511988121914 -8.301064534287667
H -4.934398502610557 -5.328715150264944 -8.518709762199121
O -6.068977492473378 1.733765344999666 -8.662165251238356
H -6.876422267948084 1.972126638344871 -9.14194039158371
H -6.393038091367656 1.2824290127801388 -7.868287308628218
O -4.6156456534501435 4.303863016499679 9.116472968417119
H -3.9594975643767936 3.632486635758043 9.356662055362495
H -5.45281530284884 3.9396981849691164 9.441269670835691
C 1.5371896249160777 -8.02338723873885 -8.981444332504552
O 2.426452747633663 -7.379898702075305 -8.504001289768377
O 0.6479265021984917 -8.666875775402396 -9.458887375240728