146

C -5.3564454929577465 1.0091607042253532 -0.0734429577464788
C -4.079135492957747 0.16955070422535368 -0.19788295774647868
C -4.333545492957747 -1.2789292957746463 0.3017270422535212
C -3.1403854929577464 -2.1745492957746464 0.7330270422535212
C -2.905235492957746 0.902300704225353 0.41966704225352136
C -2.7423854929577463 1.056130704225354 1.8024770422535212
C -1.8861754929577463 1.3499307042253532 -0.4326129577464788
C -1.5304554929577463 1.5279207042253526 2.3254170422535214
H -3.5237954929577464 0.7301007042253529 2.484817042253521
C -0.6776454929577462 1.8010507042253527 0.08546704225352131
H -1.9759254929577463 1.2426607042253535 -1.5115229577464788
C -0.4680254929577463 1.8513207042253539 1.4698070422535212
H -1.3950654929577464 1.5446707042253527 3.404047042253521
H 0.1461845070422536 1.9972507042253538 -0.6030529577464789
C -1.8679654929577463 -2.0866092957746467 -0.08765295774647863
C -0.6628654929577462 -1.814079295774647 0.5787970422535212
C -1.8438954929577462 -2.213429295774647 -1.4808029577464787
C 0.5129345070422537 -1.5763292957746469 -0.13022295774647863
H -0.6401854929577462 -1.7032692957746463 1.6609470422535213
C -0.6547954929577462 -1.9962392957746466 -2.1933129577464787
H -2.7578654929577464 -2.4351492957746466 -2.026182957746479
C 0.5308845070422537 -1.645769295774647 -1.5261029577464789
H 1.4044045070422537 -1.2610992957746463 0.41551704225352126
H -0.6795654929577464 -2.0467992957746466 -3.2793129577464786
C 1.7843245070422535 -1.2521692957746469 -2.2771629577464787
H 1.4981245070422535 -0.9384492957746469 -3.290282957746479
H 2.241984507042254 -0.38631929577464685 -1.8135029577464787
C 0.9385645070422537 2.0647807042253534 1.9815670422535212
H 1.0508945070422537 1.5807407042253532 2.9609770422535213
H 1.6053245070422537 1.5496207042253536 1.3096170422535214
C 3.9676945070422533 -1.6881692957746468 -3.314052957746479
H 4.795084507042254 -2.398849295774647 -3.4044129577464783
H 3.548404507042253 -1.4816192957746468 -4.303802957746479
H 4.307714507042253 -0.7637192957746466 -2.851282957746479
C 2.344694507042253 -3.565079295774647 -3.101282957746479
H 1.6334345070422536 -4.047909295774646 -2.4251929577464786
H 1.8561845070422536 -3.293109295774647 -4.041792957746479
H 3.1808045070422537 -4.243519295774647 -3.298122957746479
C 3.5156645070422536 -2.648489295774647 -1.1110629577464786
H 3.9311845070422535 -1.748249295774647 -0.6771029577464787
H 2.767184507042254 -3.1044092957746465 -0.45972295774647876
H 4.319224507042254 -3.371819295774647 -1.2863129577464787
C 2.963994507042253 3.381090704225353 2.401027042253521
H 3.3337945070422537 4.369820704225353 2.6912870422535216
H 3.120994507042253 2.671350704225353 3.2183370422535216
H 3.4665445070422534 3.0664207042253535 1.4881370422535212
C 1.2973745070422538 4.282440704225354 0.8488370422535213
H 1.7592145070422538 3.7367207042253527 0.02653704225352116
H 0.23311450704225378 4.4484607042253534 0.6605570422535213
H 1.7921845070422535 5.251370704225354 0.9736770422535213
C 0.7724845070422537 4.194670704225353 3.2772470422535216
H -0.2956954929577462 4.278220704225354 3.057857042253521
H 0.9298945070422537 3.612620704225354 4.190337042253521
H 1.2046345070422537 5.193640704225353 3.3918370422535213
N 2.876084507042253 -2.324759295774647 -2.4576629577464786
N 1.4527845070422536 3.504690704225353 2.1388470422535213
C -3.593905492957746 -3.637819295774647 0.8297870422535213
H -2.8952554929577463 -1.8680692957746468 1.7595270422535212
H -5.022615492957747 -1.2402792957746467 1.1579970422535213
H -4.898275492957747 -1.7933092957746464 -0.48931295774647876
H -3.883675492957746 0.07871070422535364 -1.2758929577464788
H -3.8751654929577466 -4.038529295774646 -0.1505529577464788
H -4.4603554929577465 -3.7321892957746465 1.4932570422535212
H -2.7953554929577464 -4.271929295774647 1.2313670422535212
H -5.648775492957746 1.147700704225353 0.9733970422535213
H -6.189795492957747 0.5254307042253537 -0.5943629577464788
H -5.2178854929577465 2.002970704225354 -0.5139729577464787
C 3.6710445070422537 1.0263707042253536 -0.27764295774647874
O 2.7356545070422538 1.6631507042253526 -0.7327029577464788
O 3.650814507042253 0.3883007042253537 0.7790570422535212
O 4.756604507042254 0.8696707042253538 -0.8334829577464786
O 11.322160480346295 3.602123646769437 -8.214030486625221
H 10.880140952940089 2.7529798729425985 -8.364166910129683
H 12.031725754343974 3.389407435190098 -7.58934586254045
O -9.196846221268121 1.0269263315312438 -9.338148846415342
H -8.92725306122377 1.122087398237582 -10.26401668598026
H -8.4731197768316 1.4361025651537136 -8.840397113357781
O 5.080312947534447 0.2719259268684433 3.348787026186887
H 4.540237433815106 0.8631476818967634 3.894445007675314
H 5.9695422241453215 0.35329926216959595 3.7251002178505126
O -11.970183615012825 0.18664626230803316 2.274825740897973
H -11.306387868680066 0.1182986072005976 2.9774431062483124
H -11.445785397096227 0.2929052352662307 1.4669411674521347
O -5.724220897677318 -6.100193167613889 -10.033314857910296
H -6.318524311200834 -5.347211918993358 -9.896238058997554
H -5.232728532273855 -6.165048582663432 -9.200733946413486
O -3.1081916721937213 1.9799347877345626 -9.76150114051811
H -3.138368574831465 1.072473137659046 -9.423019139387453
H -2.1711052139878433 2.1240454394446595 -9.961658664011118
O 3.1584325482210533 4.606749666969911 5.039419855994746
H 3.9806799932785957 4.811349093190489 5.509542787563241
H 2.4735810044453688 4.685874191596801 5.720360100723039
O 14.216823357014444 -0.1258416274665256 -7.352541837890501
H 14.599323313360525 0.48888949087563127 -7.996565744618385
H 13.260489047856133 -0.015381212880122952 -7.462928115280849
O -0.9164776094607596 -2.6031246903583853 9.930364485800148
H -0.13377707929758298 -2.6477872681983268 9.360844959249057
H -1.5915904723326801 -2.1936351321321794 9.368668065668608
O 0.8306314271508248 5.511156336042621 5.636347034762708
H 1.4055961187402766 5.2262382280552675 4.910258450589707
H 0.02234172573837223 4.991218408493647 5.51267709344047
O 7.1428986659596685 -3.663182715815698 1.6011530530689804
H 7.1936871848475885 -3.645312124902583 0.6336467093018772
H 6.986481285709408 -2.7383557901458118 1.8444444524476513
O 8.068292101341552 4.972044644659086 -7.349970721676062
H 8.693523829146674 4.606333505506982 -7.993638342537866
H 8.610560184815547 5.563823874304255 -6.807103690713589
O 4.398804740783218 10.435082370798217 -5.387597573763577
H 3.505867084958369 10.638500822511178 -5.070973769837332
H 4.438406362616903 9.46704589529261 -5.37030486030312
O 6.210567722627323 -0.6662496777285294 5.228341637808067
H 5.998100724050183 -1.1968920728494679 6.010801719803268
H 6.781250148924557 0.03793018564098949 5.570999240438428
O 2.783014559265367 -0.48937695299701645 -9.858907191970408
H 3.6537045917801425 -0.52547981921091 -10.282655710823938
H 2.6811681257822473 -1.3657807837560996 -9.45827572326435
O 9.527654645571351 -2.1684995752705944 -3.133895809655054
H 10.07447541403335 -2.0028835924820414 -2.3512555664247357
H 8.623007892735375 -2.1890885168134893 -2.787265902737797
O -0.7835822525439845 2.1783552988626997 -2.3166321917861947
H 0.09788003675061432 2.0788271327768015 -2.706613901109984
H -1.378401901922028 1.8048079354485764 -2.9841753711387655
O -4.834724024293669 -5.304531191219395 4.147789017287031
H -4.875342380546053 -5.271559149613799 3.1801990470477177
H -5.397723606901252 -4.568434817122582 4.430906558822719
O 1.7591557378939477 -6.220097894076424 -7.345641923194656
H 1.7779512199851193 -5.2627931877950935 -7.196706413377229
H 0.8467082116622625 -6.471447046163844 -7.137735550231699
O -9.970961903903119 4.630196231993995 -3.9958454634577363
H -10.007232494926903 4.893298652299955 -4.927740799617293
H -9.02255715886993 4.579192666831766 -3.8037803176366576
O 2.4849604053219765 -7.7000629701424765 -9.721217774105888
H 2.225516674641518 -7.36935381263078 -10.594308697577498
H 1.847023550773109 -7.291384135490636 -9.117081925131577
O 0.6941298832300808 -14.48221645613931 -8.802218017113377
H 1.0346980995997526 -14.694968027479815 -9.684100898107745
H 0.3876437707462008 -13.56663240172543 -8.884279253135979
O -8.678715256869594 -12.19516359075058 7.825065928203004
H -8.821042960134026 -12.282343123180798 8.779586703727938
H -7.979358516818728 -12.837805856911848 7.633042460396245
O -11.338952722400357 7.209289251731539 -2.630164097387741
H -11.850634045952226 7.827003976297391 -3.173835044820783
H -11.15036506840702 7.709605477045839 -1.822030249718595
C 1.6260205545533108 8.279845513549388 -6.598340598112114
O 1.2755013356355909 8.249368455075336 -7.7424672009739135
O 1.9765397734710306 8.310322572023438 -5.454213995250314