146

C -5.3564454929577465 1.0091607042253532 -0.0734429577464788
C -4.079135492957747 0.16955070422535368 -0.19788295774647868
C -4.333545492957747 -1.2789292957746463 0.3017270422535212
C -3.1403854929577464 -2.1745492957746464 0.7330270422535212
C -2.905235492957746 0.902300704225353 0.41966704225352136
C -2.7423854929577463 1.056130704225354 1.8024770422535212
C -1.8861754929577463 1.3499307042253532 -0.4326129577464788
C -1.5304554929577463 1.5279207042253526 2.3254170422535214
H -3.5237954929577464 0.7301007042253529 2.484817042253521
C -0.6776454929577462 1.8010507042253527 0.08546704225352131
H -1.9759254929577463 1.2426607042253535 -1.5115229577464788
C -0.4680254929577463 1.8513207042253539 1.4698070422535212
H -1.3950654929577464 1.5446707042253527 3.404047042253521
H 0.1461845070422536 1.9972507042253538 -0.6030529577464789
C -1.8679654929577463 -2.0866092957746467 -0.08765295774647863
C -0.6628654929577462 -1.814079295774647 0.5787970422535212
C -1.8438954929577462 -2.213429295774647 -1.4808029577464787
C 0.5129345070422537 -1.5763292957746469 -0.13022295774647863
H -0.6401854929577462 -1.7032692957746463 1.6609470422535213
C -0.6547954929577462 -1.9962392957746466 -2.1933129577464787
H -2.7578654929577464 -2.4351492957746466 -2.026182957746479
C 0.5308845070422537 -1.645769295774647 -1.5261029577464789
H 1.4044045070422537 -1.2610992957746463 0.41551704225352126
H -0.6795654929577464 -2.0467992957746466 -3.2793129577464786
C 1.7843245070422535 -1.2521692957746469 -2.2771629577464787
H 1.4981245070422535 -0.9384492957746469 -3.290282957746479
H 2.241984507042254 -0.38631929577464685 -1.8135029577464787
C 0.9385645070422537 2.0647807042253534 1.9815670422535212
H 1.0508945070422537 1.5807407042253532 2.9609770422535213
H 1.6053245070422537 1.5496207042253536 1.3096170422535214
C 3.9676945070422533 -1.6881692957746468 -3.314052957746479
H 4.795084507042254 -2.398849295774647 -3.4044129577464783
H 3.548404507042253 -1.4816192957746468 -4.303802957746479
H 4.307714507042253 -0.7637192957746466 -2.851282957746479
C 2.344694507042253 -3.565079295774647 -3.101282957746479
H 1.6334345070422536 -4.047909295774646 -2.4251929577464786
H 1.8561845070422536 -3.293109295774647 -4.041792957746479
H 3.1808045070422537 -4.243519295774647 -3.298122957746479
C 3.5156645070422536 -2.648489295774647 -1.1110629577464786
H 3.9311845070422535 -1.748249295774647 -0.6771029577464787
H 2.767184507042254 -3.1044092957746465 -0.45972295774647876
H 4.319224507042254 -3.371819295774647 -1.2863129577464787
C 2.963994507042253 3.381090704225353 2.401027042253521
H 3.3337945070422537 4.369820704225353 2.6912870422535216
H 3.120994507042253 2.671350704225353 3.2183370422535216
H 3.4665445070422534 3.0664207042253535 1.4881370422535212
C 1.2973745070422538 4.282440704225354 0.8488370422535213
H 1.7592145070422538 3.7367207042253527 0.02653704225352116
H 0.23311450704225378 4.4484607042253534 0.6605570422535213
H 1.7921845070422535 5.251370704225354 0.9736770422535213
C 0.7724845070422537 4.194670704225353 3.2772470422535216
H -0.2956954929577462 4.278220704225354 3.057857042253521
H 0.9298945070422537 3.612620704225354 4.190337042253521
H 1.2046345070422537 5.193640704225353 3.3918370422535213
N 2.876084507042253 -2.324759295774647 -2.4576629577464786
N 1.4527845070422536 3.504690704225353 2.1388470422535213
C -3.593905492957746 -3.637819295774647 0.8297870422535213
H -2.8952554929577463 -1.8680692957746468 1.7595270422535212
H -5.022615492957747 -1.2402792957746467 1.1579970422535213
H -4.898275492957747 -1.7933092957746464 -0.48931295774647876
H -3.883675492957746 0.07871070422535364 -1.2758929577464788
H -3.8751654929577466 -4.038529295774646 -0.1505529577464788
H -4.4603554929577465 -3.7321892957746465 1.4932570422535212
H -2.7953554929577464 -4.271929295774647 1.2313670422535212
H -5.648775492957746 1.147700704225353 0.9733970422535213
H -6.189795492957747 0.5254307042253537 -0.5943629577464788
H -5.2178854929577465 2.002970704225354 -0.5139729577464787
C 3.6710445070422537 1.0263707042253536 -0.27764295774647874
O 2.7356545070422538 1.6631507042253526 -0.7327029577464788
O 3.650814507042253 0.3883007042253537 0.7790570422535212
O 4.756604507042254 0.8696707042253538 -0.8334829577464786
O 2.262370414825304 6.0547330671672395 -6.20048234530331
H 1.5919258715391218 6.582014197516329 -5.740649679156625
H 1.7509080339321912 5.362512227355531 -6.6456772309000804
O -0.6172036947186075 5.3344184143890665 -9.10896596328234
H -0.010842090803912408 6.078306181057461 -8.975085595792901
H -0.46170294883477636 4.764534917378877 -8.340842104672932
O 7.407403500079884 -10.415101230941854 2.9704195549484957
H 7.2210946081186345 -10.63820441600963 3.894801144168439
H 6.642931688966316 -10.762820709212104 2.4870605178505993
O -8.38801091457129 6.512180592729593 9.137452626454698
H -8.769664919279041 7.400372657795399 9.20395400346805
H -9.002897662808419 6.0358838504274 8.559510030330575
O 2.696701944246169 -7.5435216085934655 4.963928783751306
H 2.349986770084622 -7.038859480121352 5.714976106489444
H 1.9452710179345698 -8.084816952378285 4.678774688428503
O -2.762070307788145 -3.5748189160858286 2.911272372970483
H -2.7257386738141096 -3.631887542482071 3.877911158222773
H -2.3046824103224486 -4.375018238004782 2.612208331747944
O -3.226038430712931 11.554254739101609 8.832777258137046
H -3.7168450508541264 12.338361749868447 8.544242313647011
H -3.2072274602542383 10.987611559785245 8.046950560305618
O 1.930711082434125 -9.174970137389273 -3.9638923062119678
H 1.8461066456214619 -9.135160297759 -2.9994107756266355
H 2.0558741697668936 -8.250589921050718 -4.226222940166937
O -5.262044348607815 5.479388203633072 0.17106576796370726
H -5.391026058949433 5.425846374875052 -0.7878212680684832
H -5.356317116120242 6.42356358531802 0.3675535238815494
O -1.2770434399501391 -0.5330675613428173 5.184237728498276
H -1.5861486574492019 0.3108613654693704 5.546460433342254
H -0.3149261401913077 -0.42854085364923694 5.135591935427192
O -10.934367570915049 -1.1840723144237089 3.692036882107023
H -10.200930477810711 -0.854848747526554 4.233007519349172
H -11.7081093060429 -1.0970522990479141 4.268849840131839
O -10.772705441103547 -6.479427268307447 4.734151971084774
H -11.132327129253806 -6.685331576022687 5.610076062759542
H -10.584742800461534 -5.529737327174281 4.775636977211885
O -9.992366464275324 -3.8971284801985813 -1.9628404494136111
H -9.264767637033856 -4.244454870118778 -1.4253167919232275
H -10.317855968912637 -3.1391525574159806 -1.4544203208262165
O -13.537826153371922 0.8190788984215173 2.329563167280954
H -13.537487473887829 1.7661716196409714 2.5344597744010757
H -12.597640646429566 0.5881478944867499 2.288526253931802
O -8.811817199338106 2.5514254336316347 -0.7309099420037022
H -8.703513170034478 3.2563350993306797 -1.3869129582625155
H -9.729306968655454 2.646824847060944 -0.434138279920973
O 1.7923107628887405 9.57114408211543 3.934181985035192
H 1.7216742310804087 10.508387818863921 4.1698767350823935
H 2.4985062601161037 9.238067029259621 4.508036967462536
O -4.19447149865184 -2.1995579529151685 -4.902996426113139
H -4.361294590574152 -1.4270365228433195 -4.34232891949159
H -4.470819438108228 -1.9119069791691512 -5.786087971742004
O 2.2671486687140887 -10.238536247472977 6.446268272708307
H 2.321878720227941 -10.12000639773296 5.486100238934061
H 1.695920019751104 -9.512815644465263 6.7395077333442215
O -0.788943467176197 6.054817759194419 8.987135617171925
H -0.18294724014648178 5.647240507116059 9.624016071663977
H -0.21324043832496553 6.6058513539590775 8.435873479607356
O -1.9231793149950094 1.3495084605273164 9.916203692401844
H -1.9334879017743678 1.2835212641938922 10.882902600986451
H -1.5185393000744911 0.5171670089706297 9.629086798705863
O -2.6194928836077427 5.436396284992126 -2.028347182185988
H -2.240842951040524 6.327192815884208 -1.9828155885671273
H -2.900808222165209 5.2548889245519685 -1.1190184722585252
O 9.033746707791215 10.246312220109662 -8.835989519098572
H 9.371952526981906 10.278116053339417 -9.743498580737874
H 9.543426684317964 9.534245387752462 -8.421080984497902
O 0.6852582521031503 -10.238643277265643 9.624990302134542
H 1.4348912522899173 -10.81478002221848 9.837320641573205
H 0.44716909079377887 -10.488468888042895 8.719527624954102
O 9.894012161061113 4.5019620501400315 3.169256698068744
H 9.335112966395423 4.014219142519692 3.7927195302954133
H 10.635945665194992 3.9017908138315684 3.0010570938730323
C -1.4786208771151412 -6.152325957824242 8.901928337556095
O -1.1063975343184818 -6.786720553370385 7.957570599450917
O -1.8508442199118003 -5.5179313622781 9.846286075661272