146

C -5.3564454929577465 1.0091607042253532 -0.0734429577464788
C -4.079135492957747 0.16955070422535368 -0.19788295774647868
C -4.333545492957747 -1.2789292957746463 0.3017270422535212
C -3.1403854929577464 -2.1745492957746464 0.7330270422535212
C -2.905235492957746 0.902300704225353 0.41966704225352136
C -2.7423854929577463 1.056130704225354 1.8024770422535212
C -1.8861754929577463 1.3499307042253532 -0.4326129577464788
C -1.5304554929577463 1.5279207042253526 2.3254170422535214
H -3.5237954929577464 0.7301007042253529 2.484817042253521
C -0.6776454929577462 1.8010507042253527 0.08546704225352131
H -1.9759254929577463 1.2426607042253535 -1.5115229577464788
C -0.4680254929577463 1.8513207042253539 1.4698070422535212
H -1.3950654929577464 1.5446707042253527 3.404047042253521
H 0.1461845070422536 1.9972507042253538 -0.6030529577464789
C -1.8679654929577463 -2.0866092957746467 -0.08765295774647863
C -0.6628654929577462 -1.814079295774647 0.5787970422535212
C -1.8438954929577462 -2.213429295774647 -1.4808029577464787
C 0.5129345070422537 -1.5763292957746469 -0.13022295774647863
H -0.6401854929577462 -1.7032692957746463 1.6609470422535213
C -0.6547954929577462 -1.9962392957746466 -2.1933129577464787
H -2.7578654929577464 -2.4351492957746466 -2.026182957746479
C 0.5308845070422537 -1.645769295774647 -1.5261029577464789
H 1.4044045070422537 -1.2610992957746463 0.41551704225352126
H -0.6795654929577464 -2.0467992957746466 -3.2793129577464786
C 1.7843245070422535 -1.2521692957746469 -2.2771629577464787
H 1.4981245070422535 -0.9384492957746469 -3.290282957746479
H 2.241984507042254 -0.38631929577464685 -1.8135029577464787
C 0.9385645070422537 2.0647807042253534 1.9815670422535212
H 1.0508945070422537 1.5807407042253532 2.9609770422535213
H 1.6053245070422537 1.5496207042253536 1.3096170422535214
C 3.9676945070422533 -1.6881692957746468 -3.314052957746479
H 4.795084507042254 -2.398849295774647 -3.4044129577464783
H 3.548404507042253 -1.4816192957746468 -4.303802957746479
H 4.307714507042253 -0.7637192957746466 -2.851282957746479
C 2.344694507042253 -3.565079295774647 -3.101282957746479
H 1.6334345070422536 -4.047909295774646 -2.4251929577464786
H 1.8561845070422536 -3.293109295774647 -4.041792957746479
H 3.1808045070422537 -4.243519295774647 -3.298122957746479
C 3.5156645070422536 -2.648489295774647 -1.1110629577464786
H 3.9311845070422535 -1.748249295774647 -0.6771029577464787
H 2.767184507042254 -3.1044092957746465 -0.45972295774647876
H 4.319224507042254 -3.371819295774647 -1.2863129577464787
C 2.963994507042253 3.381090704225353 2.401027042253521
H 3.3337945070422537 4.369820704225353 2.6912870422535216
H 3.120994507042253 2.671350704225353 3.2183370422535216
H 3.4665445070422534 3.0664207042253535 1.4881370422535212
C 1.2973745070422538 4.282440704225354 0.8488370422535213
H 1.7592145070422538 3.7367207042253527 0.02653704225352116
H 0.23311450704225378 4.4484607042253534 0.6605570422535213
H 1.7921845070422535 5.251370704225354 0.9736770422535213
C 0.7724845070422537 4.194670704225353 3.2772470422535216
H -0.2956954929577462 4.278220704225354 3.057857042253521
H 0.9298945070422537 3.612620704225354 4.190337042253521
H 1.2046345070422537 5.193640704225353 3.3918370422535213
N 2.876084507042253 -2.324759295774647 -2.4576629577464786
N 1.4527845070422536 3.504690704225353 2.1388470422535213
C -3.593905492957746 -3.637819295774647 0.8297870422535213
H -2.8952554929577463 -1.8680692957746468 1.7595270422535212
H -5.022615492957747 -1.2402792957746467 1.1579970422535213
H -4.898275492957747 -1.7933092957746464 -0.48931295774647876
H -3.883675492957746 0.07871070422535364 -1.2758929577464788
H -3.8751654929577466 -4.038529295774646 -0.1505529577464788
H -4.4603554929577465 -3.7321892957746465 1.4932570422535212
H -2.7953554929577464 -4.271929295774647 1.2313670422535212
H -5.648775492957746 1.147700704225353 0.9733970422535213
H -6.189795492957747 0.5254307042253537 -0.5943629577464788
H -5.2178854929577465 2.002970704225354 -0.5139729577464787
C 3.6710445070422537 1.0263707042253536 -0.27764295774647874
O 2.7356545070422538 1.6631507042253526 -0.7327029577464788
O 3.650814507042253 0.3883007042253537 0.7790570422535212
O 4.756604507042254 0.8696707042253538 -0.8334829577464786
O 4.828578015247788 -5.650400247056873 -1.973992119266645
H 3.886543527771947 -5.432133139622447 -2.036424892057382
H 4.863778986749026 -6.59655688988444 -2.1801727273233595
O 1.1748308646984171 -3.7114959942021066 6.966487703592982
H 1.6430057604474329 -3.3803746487654127 7.7476011898973685
H 0.2762457048005713 -3.3630685603910777 7.067011223622986
O 5.11685225054486 -5.813875386967226 0.22141295697385144
H 4.985109608942515 -5.420103943607876 1.0969443862659887
H 6.078038960235239 -5.797615147691296 0.09968515393251476
O -3.947935826679873 -6.670812777952991 -7.721518242556762
H -3.8387565825348564 -7.617499598677423 -7.545929766241851
H -3.047327063330985 -6.317342120730013 -7.667441499297378
O -5.095319394225346 8.918819294832375 -2.5486022118722564
H -5.228797758301264 8.36633998456791 -1.7637980994000295
H -4.673484716089664 8.32269079407737 -3.185507431830262
O 3.784773281944667 -2.0564614508722006 7.882020576251237
H 4.354223289330078 -2.571146561230085 8.473453821144226
H 3.4265624853931396 -1.358518026115838 8.450810471883429
O 4.305501490342452 10.032995465098608 2.8068305699098657
H 3.4453354052049883 9.73955253186573 3.142944996578782
H 4.089356456877294 10.785479772877451 2.2358571595351457
O 7.047814937582017 5.13132324439214 -3.0682198346842258
H 7.686942967150756 4.8526034896484385 -3.7411225148952596
H 7.3108448374504 6.039861917499332 -2.857661777265728
O 6.5000966235852555 -4.019918216371674 -4.315309706578042
H 5.758520835659361 -3.9771699818511053 -4.937567929591179
H 6.472828510433864 -3.165191996619302 -3.8596108108442664
O 4.105888763859722 -8.87067664500905 3.0045499689010198
H 4.072842888520305 -9.653899655042544 3.5741437220067986
H 3.237432080425315 -8.856880517209875 2.5749517843659144
O 1.9122767454723792 16.447887065855 7.036803701771305
H 1.208655140782688 16.94308614141032 7.482518711483857
H 1.4474256891105695 15.710793830525688 6.613047873338135
O -5.180089042694554 6.750083495008271 4.972173555369142
H -5.132488486837155 6.735739399795107 5.939900681636967
H -4.27858981906802 6.5337858905145 4.690257893528564
O -3.0705020706170583 8.113352896641988 -8.535669892185176
H -2.21116675985406 7.702056201344012 -8.712715674436055
H -3.4082912747572083 7.6284642748251095 -7.767722353417786
O -2.9545105488946097 -4.372191515516628 -10.792051426554893
H -3.4872031658711666 -4.408444381073355 -11.600687106238642
H -2.688558532449135 -3.442575345893843 -10.728449174830253
O 11.937141414613126 0.852605672194767 0.4882024874262043
H 11.808517195121606 0.6829282577014171 -0.4571190145354566
H 11.675834497307827 1.7793034651951816 0.5973438623330758
O 3.7703746819222292 5.539354046300096 -2.8377590131153414
H 2.9920066264701557 5.430701825304395 -2.2709210979892798
H 4.03914216743279 4.631250887513165 -3.0428800408856045
O 5.440667622773675 -5.328000003788393 7.567488184725434
H 5.6316153741245305 -5.094028626842038 6.646747337405255
H 4.473307544758197 -5.3726760701664835 7.601846194779402
O -3.202563810745845 4.383513907012593 1.5085593775464163
H -2.2929797340099416 4.5238812031523965 1.2053743079554227
H -3.4431444073765056 5.225009224456851 1.9244542579479689
O 0.5747393865718653 5.07638788120663 -12.390028836966032
H 0.6973529571213946 5.8318566199625295 -12.984335368967544
H 0.7261553734394373 5.4460834242187275 -11.507214955846173
O 4.529999689450471 0.5236672320595721 -12.304500377592575
H 4.823367392257516 1.4470888278088752 -12.318475510991924
H 3.6733401560132624 0.5433659868847633 -12.756947443147741
O -3.2790143757704264 6.918262157944657 -14.732167413211865
H -3.794072936598324 6.512530516449432 -15.445654533563369
H -3.9289091818347313 7.064938411564738 -14.02854481410449
O -5.728875825454714 -3.196944998088905 -6.844287598621843
H -6.141770118052122 -2.986485486250412 -5.993292619836898
H -5.357576984786046 -2.3520280359128707 -7.139608512621047
O -5.298929166692496 -8.988144014963328 2.9723110723490995
H -5.09664144009218 -8.646685181544662 3.856309317622946
H -5.150412057350632 -8.229099982831803 2.3885673187908676
O -1.9461893118586686 2.5223972242776527 -11.823152987064692
H -2.232069131355426 2.5147390319472125 -12.748993922536188
H -2.7629632965220163 2.36941879848494 -11.324715625384068
C -5.957379662627227 -14.977658243307616 -0.7665676831853199
O -6.208915292184823 -13.951644691280022 -0.20367846191812844
O -5.705844033069632 -16.003671795335208 -1.3294569044525122