146

C -5.3564454929577465 1.0091607042253532 -0.0734429577464788
C -4.079135492957747 0.16955070422535368 -0.19788295774647868
C -4.333545492957747 -1.2789292957746463 0.3017270422535212
C -3.1403854929577464 -2.1745492957746464 0.7330270422535212
C -2.905235492957746 0.902300704225353 0.41966704225352136
C -2.7423854929577463 1.056130704225354 1.8024770422535212
C -1.8861754929577463 1.3499307042253532 -0.4326129577464788
C -1.5304554929577463 1.5279207042253526 2.3254170422535214
H -3.5237954929577464 0.7301007042253529 2.484817042253521
C -0.6776454929577462 1.8010507042253527 0.08546704225352131
H -1.9759254929577463 1.2426607042253535 -1.5115229577464788
C -0.4680254929577463 1.8513207042253539 1.4698070422535212
H -1.3950654929577464 1.5446707042253527 3.404047042253521
H 0.1461845070422536 1.9972507042253538 -0.6030529577464789
C -1.8679654929577463 -2.0866092957746467 -0.08765295774647863
C -0.6628654929577462 -1.814079295774647 0.5787970422535212
C -1.8438954929577462 -2.213429295774647 -1.4808029577464787
C 0.5129345070422537 -1.5763292957746469 -0.13022295774647863
H -0.6401854929577462 -1.7032692957746463 1.6609470422535213
C -0.6547954929577462 -1.9962392957746466 -2.1933129577464787
H -2.7578654929577464 -2.4351492957746466 -2.026182957746479
C 0.5308845070422537 -1.645769295774647 -1.5261029577464789
H 1.4044045070422537 -1.2610992957746463 0.41551704225352126
H -0.6795654929577464 -2.0467992957746466 -3.2793129577464786
C 1.7843245070422535 -1.2521692957746469 -2.2771629577464787
H 1.4981245070422535 -0.9384492957746469 -3.290282957746479
H 2.241984507042254 -0.38631929577464685 -1.8135029577464787
C 0.9385645070422537 2.0647807042253534 1.9815670422535212
H 1.0508945070422537 1.5807407042253532 2.9609770422535213
H 1.6053245070422537 1.5496207042253536 1.3096170422535214
C 3.9676945070422533 -1.6881692957746468 -3.314052957746479
H 4.795084507042254 -2.398849295774647 -3.4044129577464783
H 3.548404507042253 -1.4816192957746468 -4.303802957746479
H 4.307714507042253 -0.7637192957746466 -2.851282957746479
C 2.344694507042253 -3.565079295774647 -3.101282957746479
H 1.6334345070422536 -4.047909295774646 -2.4251929577464786
H 1.8561845070422536 -3.293109295774647 -4.041792957746479
H 3.1808045070422537 -4.243519295774647 -3.298122957746479
C 3.5156645070422536 -2.648489295774647 -1.1110629577464786
H 3.9311845070422535 -1.748249295774647 -0.6771029577464787
H 2.767184507042254 -3.1044092957746465 -0.45972295774647876
H 4.319224507042254 -3.371819295774647 -1.2863129577464787
C 2.963994507042253 3.381090704225353 2.401027042253521
H 3.3337945070422537 4.369820704225353 2.6912870422535216
H 3.120994507042253 2.671350704225353 3.2183370422535216
H 3.4665445070422534 3.0664207042253535 1.4881370422535212
C 1.2973745070422538 4.282440704225354 0.8488370422535213
H 1.7592145070422538 3.7367207042253527 0.02653704225352116
H 0.23311450704225378 4.4484607042253534 0.6605570422535213
H 1.7921845070422535 5.251370704225354 0.9736770422535213
C 0.7724845070422537 4.194670704225353 3.2772470422535216
H -0.2956954929577462 4.278220704225354 3.057857042253521
H 0.9298945070422537 3.612620704225354 4.190337042253521
H 1.2046345070422537 5.193640704225353 3.3918370422535213
N 2.876084507042253 -2.324759295774647 -2.4576629577464786
N 1.4527845070422536 3.504690704225353 2.1388470422535213
C -3.593905492957746 -3.637819295774647 0.8297870422535213
H -2.8952554929577463 -1.8680692957746468 1.7595270422535212
H -5.022615492957747 -1.2402792957746467 1.1579970422535213
H -4.898275492957747 -1.7933092957746464 -0.48931295774647876
H -3.883675492957746 0.07871070422535364 -1.2758929577464788
H -3.8751654929577466 -4.038529295774646 -0.1505529577464788
H -4.4603554929577465 -3.7321892957746465 1.4932570422535212
H -2.7953554929577464 -4.271929295774647 1.2313670422535212
H -5.648775492957746 1.147700704225353 0.9733970422535213
H -6.189795492957747 0.5254307042253537 -0.5943629577464788
H -5.2178854929577465 2.002970704225354 -0.5139729577464787
C 3.6710445070422537 1.0263707042253536 -0.27764295774647874
O 2.7356545070422538 1.6631507042253526 -0.7327029577464788
O 3.650814507042253 0.3883007042253537 0.7790570422535212
O 4.756604507042254 0.8696707042253538 -0.8334829577464786
O 3.031404129909561 -0.5621614509634231 -11.675964933711665
H 3.3731944126644784 -0.7311382181790331 -12.566803646193154
H 3.8181790393590793 -0.31771562060918324 -11.165873351558886
O 5.570621473995528 8.52209258663199 -0.7473513388738537
H 5.9023632301613205 9.4289605372896 -0.828006680830254
H 5.484845331944144 8.221793134576092 -1.6646433517300152
O -6.5875736112673104 -9.939346336759293 2.9113110431692246
H -6.310051749544675 -10.144063265764377 2.0057504697426154
H -6.924728014965247 -10.782670263750777 3.2490884943567653
O -4.675808992534051 -5.941079247713164 7.853106747397812
H -4.901193176847392 -6.077219379148196 6.920564420758284
H -5.0597602556160775 -6.70962125011466 8.301310453788572
O 6.241730637031664 -0.14485887153464727 4.118642532824411
H 5.5377793837632145 -0.029956182463823033 4.774552101260545
H 6.933730135666739 -0.6233946184432821 4.599373410883436
O 4.320823062138013 4.791607805460938 5.856343624876997
H 4.649445530616698 5.063762330489987 6.726347386143114
H 5.063112152798296 4.969838016658572 5.259516311491311
O 11.645473103120402 -0.5369655926353429 -4.733019968330305
H 11.818873029564633 -0.5206543022274346 -5.686242798635144
H 11.268679364355041 0.3365377119220927 -4.548682235745629
O -4.427187920403154 -1.8659698099544593 11.203092342079044
H -4.266659538045804 -2.750586087812393 10.84163413383567
H -3.5425195264168097 -1.5411631795842529 11.428535083920902
O -0.014539415659106325 10.11385460557212 6.828173713803054
H -0.1450498646447036 9.877631535303745 7.758836402793302
H -0.8637644534421218 10.497738645794183 6.562821451394717
O -3.6534563361327477 -3.8568279026714833 -8.162844996798652
H -2.695475741776603 -3.986673344797261 -8.096658148435774
H -3.8511960051924796 -4.043130454381434 -9.092980646479122
O 0.9469283632597234 8.90497457211931 3.148841661248171
H 1.1447108621069804 8.637131068620718 4.0588467698510495
H 1.6253470349480978 8.458094821404437 2.620629072790082
O -10.673620361708824 5.318937768588871 -4.893179785793815
H -9.740316388505205 5.46236856539625 -5.110754271957839
H -10.696425898810123 5.354566830828885 -3.9251031247274413
O 0.3105466652791126 -5.6935090841921525 -5.570467088905659
H 0.1220923895931123 -5.637188801137146 -6.519298142672488
H 1.2577006356351512 -5.894359798075471 -5.531476173664372
O 0.23321997675491257 1.8027470682386046 -11.157877270043024
H 0.7349703595451178 0.9975572420366512 -11.355065642039833
H -0.688187242962162 1.5039145822026998 -11.131996291644722
O -11.583286614611879 -1.6924737159736545 -2.238901242617774
H -12.026908068919804 -2.297649632996894 -2.8520321190485767
H -11.122348702497199 -1.0679291906497521 -2.8189377254042456
O -4.753758880663133 2.7138313717183435 -4.080732602654803
H -5.297559367446546 2.1865625085329854 -4.68508012965342
H -4.730920462873726 2.187936809875165 -3.2671754376094397
O 1.787584118476475 -8.837802119325811 7.093067972242727
H 2.576245126196424 -8.274918043464275 7.10501321998651
H 1.1957771300878963 -8.398201601329733 6.464197701541353
O -5.5243318781591455 -6.215403729967733 -0.12751795847808706
H -5.554109323225319 -6.349762655354044 -1.0866990361867581
H -5.289651978575074 -7.087447291662153 0.22380428041168307
O -6.31982811440838 1.6358296696658865 7.143596621418372
H -6.298906229554546 1.8890513903544397 8.07869468676002
H -7.081647663930198 2.1174111095304777 6.7876861902080465
O -7.833824076686707 0.759490889665523 -8.502510526463096
H -7.939547052227617 0.2429298808476874 -9.315501752437816
H -7.4484155020223834 0.13060950947827354 -7.874075657499738
O 8.310200602459753 1.4340936833137583 -7.076045625270898
H 8.330567519631 1.4728988534076124 -6.1080338978838125
H 8.678655554343921 2.2866785591754994 -7.3522736509740385
O 9.847540264798647 0.7270143594103295 -8.224750462122136
H 9.931864121882013 0.4459913075141264 -9.14826705013208
H 8.9121914255936 0.5788573930613232 -8.019484764500666
O 3.4087793277667435 -5.912143255945104 5.111798857024661
H 3.280203660182412 -4.975227659897284 4.900552980171167
H 2.798841672902536 -6.372296991046391 4.515815181450334
O 3.185601508159072 10.852639192901918 -2.32408814114776
H 2.901438865426173 10.528000014769887 -1.4564313233927133
H 3.6906674332314084 11.654077923282074 -2.1202099493825153
C -7.152626378242417 7.863949826688971 4.981101282230311
O -6.711228220896987 8.65988931333914 5.758575563208868
O -7.594024535587847 7.0680103400388035 4.203627001251753