146

C -5.3564454929577465 1.0091607042253532 -0.0734429577464788
C -4.079135492957747 0.16955070422535368 -0.19788295774647868
C -4.333545492957747 -1.2789292957746463 0.3017270422535212
C -3.1403854929577464 -2.1745492957746464 0.7330270422535212
C -2.905235492957746 0.902300704225353 0.41966704225352136
C -2.7423854929577463 1.056130704225354 1.8024770422535212
C -1.8861754929577463 1.3499307042253532 -0.4326129577464788
C -1.5304554929577463 1.5279207042253526 2.3254170422535214
H -3.5237954929577464 0.7301007042253529 2.484817042253521
C -0.6776454929577462 1.8010507042253527 0.08546704225352131
H -1.9759254929577463 1.2426607042253535 -1.5115229577464788
C -0.4680254929577463 1.8513207042253539 1.4698070422535212
H -1.3950654929577464 1.5446707042253527 3.404047042253521
H 0.1461845070422536 1.9972507042253538 -0.6030529577464789
C -1.8679654929577463 -2.0866092957746467 -0.08765295774647863
C -0.6628654929577462 -1.814079295774647 0.5787970422535212
C -1.8438954929577462 -2.213429295774647 -1.4808029577464787
C 0.5129345070422537 -1.5763292957746469 -0.13022295774647863
H -0.6401854929577462 -1.7032692957746463 1.6609470422535213
C -0.6547954929577462 -1.9962392957746466 -2.1933129577464787
H -2.7578654929577464 -2.4351492957746466 -2.026182957746479
C 0.5308845070422537 -1.645769295774647 -1.5261029577464789
H 1.4044045070422537 -1.2610992957746463 0.41551704225352126
H -0.6795654929577464 -2.0467992957746466 -3.2793129577464786
C 1.7843245070422535 -1.2521692957746469 -2.2771629577464787
H 1.4981245070422535 -0.9384492957746469 -3.290282957746479
H 2.241984507042254 -0.38631929577464685 -1.8135029577464787
C 0.9385645070422537 2.0647807042253534 1.9815670422535212
H 1.0508945070422537 1.5807407042253532 2.9609770422535213
H 1.6053245070422537 1.5496207042253536 1.3096170422535214
C 3.9676945070422533 -1.6881692957746468 -3.314052957746479
H 4.795084507042254 -2.398849295774647 -3.4044129577464783
H 3.548404507042253 -1.4816192957746468 -4.303802957746479
H 4.307714507042253 -0.7637192957746466 -2.851282957746479
C 2.344694507042253 -3.565079295774647 -3.101282957746479
H 1.6334345070422536 -4.047909295774646 -2.4251929577464786
H 1.8561845070422536 -3.293109295774647 -4.041792957746479
H 3.1808045070422537 -4.243519295774647 -3.298122957746479
C 3.5156645070422536 -2.648489295774647 -1.1110629577464786
H 3.9311845070422535 -1.748249295774647 -0.6771029577464787
H 2.767184507042254 -3.1044092957746465 -0.45972295774647876
H 4.319224507042254 -3.371819295774647 -1.2863129577464787
C 2.963994507042253 3.381090704225353 2.401027042253521
H 3.3337945070422537 4.369820704225353 2.6912870422535216
H 3.120994507042253 2.671350704225353 3.2183370422535216
H 3.4665445070422534 3.0664207042253535 1.4881370422535212
C 1.2973745070422538 4.282440704225354 0.8488370422535213
H 1.7592145070422538 3.7367207042253527 0.02653704225352116
H 0.23311450704225378 4.4484607042253534 0.6605570422535213
H 1.7921845070422535 5.251370704225354 0.9736770422535213
C 0.7724845070422537 4.194670704225353 3.2772470422535216
H -0.2956954929577462 4.278220704225354 3.057857042253521
H 0.9298945070422537 3.612620704225354 4.190337042253521
H 1.2046345070422537 5.193640704225353 3.3918370422535213
N 2.876084507042253 -2.324759295774647 -2.4576629577464786
N 1.4527845070422536 3.504690704225353 2.1388470422535213
C -3.593905492957746 -3.637819295774647 0.8297870422535213
H -2.8952554929577463 -1.8680692957746468 1.7595270422535212
H -5.022615492957747 -1.2402792957746467 1.1579970422535213
H -4.898275492957747 -1.7933092957746464 -0.48931295774647876
H -3.883675492957746 0.07871070422535364 -1.2758929577464788
H -3.8751654929577466 -4.038529295774646 -0.1505529577464788
H -4.4603554929577465 -3.7321892957746465 1.4932570422535212
H -2.7953554929577464 -4.271929295774647 1.2313670422535212
H -5.648775492957746 1.147700704225353 0.9733970422535213
H -6.189795492957747 0.5254307042253537 -0.5943629577464788
H -5.2178854929577465 2.002970704225354 -0.5139729577464787
C 3.6710445070422537 1.0263707042253536 -0.27764295774647874
O 2.7356545070422538 1.6631507042253526 -0.7327029577464788
O 3.650814507042253 0.3883007042253537 0.7790570422535212
O 4.756604507042254 0.8696707042253538 -0.8334829577464786
O 0.8370319433148072 -5.181685038188405 -10.002321287188199
H -0.04413645942206523 -4.823502563511554 -9.817348538512839
H 0.7029925962399939 -5.742451029142013 -10.78112607731572
O 8.694060668907776 6.779392761850706 -4.532948751341409
H 8.059213676129312 6.991543877977903 -3.8322858105588047
H 8.700342950262621 5.810727680817713 -4.557655795444754
O 7.23819732704316 4.7741727872239625 -3.8085702657763054
H 7.217819610785566 4.979656919635172 -4.755316470895364
H 6.6794986696297975 3.986572356551209 -3.727927125283147
O 5.514003904539641 3.919525312267951 2.535326331102004
H 5.243409453002751 3.6867748345232387 3.436199915356232
H 4.912721745479879 4.638256053514688 2.2886527997222763
O 4.934309896627412 6.0750306979927045 5.459714096668357
H 4.826755770738339 6.383490568666748 4.547435644063019
H 4.795670310898737 6.871471798430765 5.993963648003682
O 0.10924637820776528 -6.0064346019731945 -12.819187814394656
H 0.48253795280017986 -5.127783804661217 -12.653074799789113
H -0.5238918770933898 -6.132202380893954 -12.096498143955436
O 5.868074780565587 9.361297271839536 8.248192204102217
H 5.392813086631999 9.362989117515095 9.092639252079524
H 5.299349386526856 8.841478060857046 7.660568720595107
O 1.2785526925011066 -9.674809731315701 7.324499022697164
H 1.064124416294855 -9.516929875651623 8.256197376478422
H 2.2190679510799027 -9.907698011695667 7.336990681599145
O 9.889391580166656 -2.5721672153585216 -7.7574380120906525
H 10.773283347046384 -2.3492522023685405 -8.086089192410936
H 9.30719504655265 -2.3917113732430035 -8.510727351982181
O -5.766003078879695 -7.883954607547643 8.267678349860663
H -5.791147924874785 -7.882994079624961 9.236354854688766
H -6.313453372374777 -8.64418972118927 8.02008454452933
O 8.17705999171636 4.64174202283339 3.263757606848081
H 8.368317975038572 4.153448112578354 2.448922164612431
H 7.229595824177873 4.835744794801031 3.2034540414520443
O 2.7447392708559146 -10.24478804096942 4.33067825598496
H 2.7226315168999973 -10.745779465642809 3.501530382250273
H 1.974472042477837 -9.659870633778919 4.271332085491022
O 3.7724735811558956 5.960366876202105 8.171748169846165
H 3.7597921171876973 5.985821499698934 9.140334046015262
H 4.239318163388656 6.772049579536983 7.922370405306292
O 1.3328601848837291 -1.1509080943305148 -5.519162927233637
H 1.0100331944642884 -0.556886923991683 -4.824980717474548
H 0.5912094182706646 -1.755062974039447 -5.6738011049458015
O 0.16178620855592696 -8.269216588390476 2.464856659994313
H 0.07763840393114085 -8.300071580656029 3.4297061162977935
H -0.5958968805271536 -7.736144120603035 2.180758041721489
O -5.441119860652631 -9.042762587329243 3.5898461500078356
H -5.572215218470062 -8.970756626759696 2.6324556833218664
H -5.428168872288734 -8.12287655614032 3.8941550487010717
O 7.498900163733938 8.009476374827006 -8.60364153141595
H 7.530032216791805 8.39266345702586 -9.493116551980513
H 8.427261403715166 7.9840233529451465 -8.32712842851195
O 0.3072312272572746 -2.139873682857929 -9.480570899737996
H 0.9552702762416407 -1.4213358896290007 -9.428453843094877
H -0.41852200713917864 -1.7632553962438418 -10.000573643241294
O -7.762061066949281 2.216787088537359 11.187223121940558
H -7.242048772649703 1.7105363914562295 11.829301623669249
H -8.520714208650862 1.644650207078743 10.997310658523508
O -0.6172861216199617 2.938596040353171 13.445391698655063
H -1.3349203678448682 2.956991582575515 12.794523010230465
H 0.17042186054781805 3.172838961572412 12.931963677421471
O -8.774489763024064 -1.6543946719470557 -7.613914059565903
H -8.453964430917594 -2.2810375761722588 -8.279909208919292
H -8.018814863795907 -1.5387686866241328 -7.018474707075141
O -2.179584466587453 4.323556498821974 1.2879310914127162
H -2.3744096159493946 4.269812252288792 0.34023806408758134
H -2.9409182735334327 3.895934151842458 1.7080166863393589
O -6.799389241772719 12.341275774727382 -6.206040775061762
H -6.470455857251535 12.640593712860271 -7.066958284094605
H -6.334127141632302 12.904162353677709 -5.569132758382328
O 3.8573012392739363 -4.687453295197049 3.961940482123454
H 2.9927306490536054 -4.5037369608883 3.564783888404773
H 3.6553309590192504 -4.856567276662972 4.8944480753722095
C 11.498155608738614 5.314957535606901 -5.669289994671503
O 11.465835453329547 5.179884825788683 -6.858209263552574
O 11.530475764147681 5.450030245425118 -4.480370725790435