146

C -5.3564454929577465 1.0091607042253532 -0.0734429577464788
C -4.079135492957747 0.16955070422535368 -0.19788295774647868
C -4.333545492957747 -1.2789292957746463 0.3017270422535212
C -3.1403854929577464 -2.1745492957746464 0.7330270422535212
C -2.905235492957746 0.902300704225353 0.41966704225352136
C -2.7423854929577463 1.056130704225354 1.8024770422535212
C -1.8861754929577463 1.3499307042253532 -0.4326129577464788
C -1.5304554929577463 1.5279207042253526 2.3254170422535214
H -3.5237954929577464 0.7301007042253529 2.484817042253521
C -0.6776454929577462 1.8010507042253527 0.08546704225352131
H -1.9759254929577463 1.2426607042253535 -1.5115229577464788
C -0.4680254929577463 1.8513207042253539 1.4698070422535212
H -1.3950654929577464 1.5446707042253527 3.404047042253521
H 0.1461845070422536 1.9972507042253538 -0.6030529577464789
C -1.8679654929577463 -2.0866092957746467 -0.08765295774647863
C -0.6628654929577462 -1.814079295774647 0.5787970422535212
C -1.8438954929577462 -2.213429295774647 -1.4808029577464787
C 0.5129345070422537 -1.5763292957746469 -0.13022295774647863
H -0.6401854929577462 -1.7032692957746463 1.6609470422535213
C -0.6547954929577462 -1.9962392957746466 -2.1933129577464787
H -2.7578654929577464 -2.4351492957746466 -2.026182957746479
C 0.5308845070422537 -1.645769295774647 -1.5261029577464789
H 1.4044045070422537 -1.2610992957746463 0.41551704225352126
H -0.6795654929577464 -2.0467992957746466 -3.2793129577464786
C 1.7843245070422535 -1.2521692957746469 -2.2771629577464787
H 1.4981245070422535 -0.9384492957746469 -3.290282957746479
H 2.241984507042254 -0.38631929577464685 -1.8135029577464787
C 0.9385645070422537 2.0647807042253534 1.9815670422535212
H 1.0508945070422537 1.5807407042253532 2.9609770422535213
H 1.6053245070422537 1.5496207042253536 1.3096170422535214
C 3.9676945070422533 -1.6881692957746468 -3.314052957746479
H 4.795084507042254 -2.398849295774647 -3.4044129577464783
H 3.548404507042253 -1.4816192957746468 -4.303802957746479
H 4.307714507042253 -0.7637192957746466 -2.851282957746479
C 2.344694507042253 -3.565079295774647 -3.101282957746479
H 1.6334345070422536 -4.047909295774646 -2.4251929577464786
H 1.8561845070422536 -3.293109295774647 -4.041792957746479
H 3.1808045070422537 -4.243519295774647 -3.298122957746479
C 3.5156645070422536 -2.648489295774647 -1.1110629577464786
H 3.9311845070422535 -1.748249295774647 -0.6771029577464787
H 2.767184507042254 -3.1044092957746465 -0.45972295774647876
H 4.319224507042254 -3.371819295774647 -1.2863129577464787
C 2.963994507042253 3.381090704225353 2.401027042253521
H 3.3337945070422537 4.369820704225353 2.6912870422535216
H 3.120994507042253 2.671350704225353 3.2183370422535216
H 3.4665445070422534 3.0664207042253535 1.4881370422535212
C 1.2973745070422538 4.282440704225354 0.8488370422535213
H 1.7592145070422538 3.7367207042253527 0.02653704225352116
H 0.23311450704225378 4.4484607042253534 0.6605570422535213
H 1.7921845070422535 5.251370704225354 0.9736770422535213
C 0.7724845070422537 4.194670704225353 3.2772470422535216
H -0.2956954929577462 4.278220704225354 3.057857042253521
H 0.9298945070422537 3.612620704225354 4.190337042253521
H 1.2046345070422537 5.193640704225353 3.3918370422535213
N 2.876084507042253 -2.324759295774647 -2.4576629577464786
N 1.4527845070422536 3.504690704225353 2.1388470422535213
C -3.593905492957746 -3.637819295774647 0.8297870422535213
H -2.8952554929577463 -1.8680692957746468 1.7595270422535212
H -5.022615492957747 -1.2402792957746467 1.1579970422535213
H -4.898275492957747 -1.7933092957746464 -0.48931295774647876
H -3.883675492957746 0.07871070422535364 -1.2758929577464788
H -3.8751654929577466 -4.038529295774646 -0.1505529577464788
H -4.4603554929577465 -3.7321892957746465 1.4932570422535212
H -2.7953554929577464 -4.271929295774647 1.2313670422535212
H -5.648775492957746 1.147700704225353 0.9733970422535213
H -6.189795492957747 0.5254307042253537 -0.5943629577464788
H -5.2178854929577465 2.002970704225354 -0.5139729577464787
C 3.6710445070422537 1.0263707042253536 -0.27764295774647874
O 2.7356545070422538 1.6631507042253526 -0.7327029577464788
O 3.650814507042253 0.3883007042253537 0.7790570422535212
O 4.756604507042254 0.8696707042253538 -0.8334829577464786
O -3.5533717701230048 7.624842014481408 3.227904929350232
H -3.256465152340223 7.716092202980736 2.31003390338001
H -3.7422565639244474 6.678888183802528 3.3198605120765605
O -1.1187522260076896 3.5004892921466135 8.731363437755151
H -1.6009682079459848 4.1086879938441525 9.311475015744003
H -0.3060944700880661 3.980719108269427 8.51243733207031
O -1.7672904435374805 -0.09865750808856477 -4.678066263773417
H -2.582407355317807 -0.25072352518576135 -4.176640592837135
H -1.7579044799181271 -0.8136962389246287 -5.331972573110836
O -7.4896840071065025 -4.312954271471043 6.761868371204315
H -7.524732300961231 -4.464346620224231 7.718330252690905
H -6.548676000210351 -4.396017213762908 6.546075825283122
O 5.91864967581333 10.069150613496422 9.381820432506622
H 6.113188498681761 10.120041344924852 8.433911082013841
H 6.2715742741939255 10.8983180333248 9.738033236955095
O 2.1250607749744557 -13.182856186494984 9.811318951944008
H 1.5841215434190632 -13.293088105209014 9.014951556352699
H 2.1848261870557497 -12.222116423878225 9.92253562491099
O 11.275320512811112 -6.4450461432689705 5.050316928635722
H 11.41362937175217 -7.178964683226246 5.667732180427742
H 10.804294803434592 -5.781829195349529 5.5768527824944725
O -2.4669408223747307 -5.083514222428933 6.483346183841416
H -1.773965977086314 -5.073136944218298 5.806112448123505
H -2.9314364432940834 -4.242713178492004 6.355833961049578
O -7.482453245682177 1.7151351940443826 5.653379114350904
H -6.658803704814406 1.213978574375318 5.556369664861754
H -7.859387960522122 1.3874672558988976 6.4837500479462555
O 3.5429659847348494 -3.8510104543214045 2.5680284010238514
H 3.265793504420935 -3.950485014540315 3.4912009661089973
H 2.799609813217133 -4.209889528141442 2.0604957843965113
O -6.741668956208559 -4.8282704702079915 -7.031883026260593
H -6.028522860608234 -4.1962916957573695 -7.207930837590083
H -6.53731223026799 -5.578740649339405 -7.609805843855913
O 6.874223166763143 2.533222087674952 -2.6613516076145807
H 5.949648379854858 2.438020272477324 -2.9353323271854608
H 6.925652049827864 3.4393875641409286 -2.321968131959233
O 11.326054703734652 2.4277918285423246 -3.8008489859306778
H 12.187751621739057 2.076012978387891 -3.531224396944916
H 11.236030439776156 2.1449962416913797 -4.72328284928152
O -0.07923572380693239 0.25283246009886695 6.003000270693698
H -0.19649515109012622 0.18042151245412025 6.962153146034438
H -0.8492934397985527 0.7633955310172994 5.710941357191459
O 7.007271483314043 -0.7752667157580784 7.852893073873079
H 6.06330246722656 -0.5663958043670174 7.918183164556876
H 7.196509258730008 -0.7095278098562687 6.904826934351974
O 4.004203708921612 -6.848123274833081 -7.345324577445211
H 3.7295183740252917 -7.668169893137935 -7.782404510065859
H 4.540221849686812 -7.150112374666033 -6.5966931055896
O 9.118612896222958 -4.13860698577197 -0.09375149646617409
H 9.706476394111036 -4.401902612616233 0.6301678896780842
H 8.416436442577798 -3.636037110658681 0.34594577766105683
O 4.27050918578316 11.142975050355052 -7.000187930215463
H 3.378326320398437 11.224464701364102 -6.630950163468439
H 4.476467927846317 10.200537387418848 -6.908786659178853
O 9.62117735150183 -5.633867476749003 -1.1793262682196373
H 10.165975115551586 -5.51155411825593 -0.3873652871602591
H 8.856600321715188 -6.13751801926112 -0.8619620596990685
O 10.940180117463768 -2.9732684552231667 -11.84397424478883
H 10.806671323292035 -3.0162144969147793 -12.802774743475512
H 10.042029485171152 -2.9148873010616043 -11.484976992917542
O 8.195524559054643 5.312200003356726 6.440814063849442
H 8.39228024613499 6.2584412673187995 6.510685566459587
H 8.418374544994638 4.9615327999862275 7.3162181651345914
O -10.309458662507964 2.677873094420346 5.346717183908479
H -10.664406789306161 2.6513677131002873 6.247981101384115
H -9.881551042396282 1.8152688454773012 5.23822330087464
O 6.355678589629142 -4.39032625850033 2.404176042039273
H 6.399662849180774 -4.615070094129031 1.462622564982024
H 6.979995420802987 -3.655315596837453 2.4987792441782433
O 2.7241427156933824 6.160223722215022 -3.596190039461904
H 2.5498345672253873 6.906162167739202 -3.002759452310694
H 3.6849467612129967 6.043477993644208 -3.5494143484075558
C -3.848429511360487 -3.3711653232613235 -9.596249648519887
O -3.3646295381029017 -3.8381982636975054 -8.605978940216598
O -4.332229484618073 -2.9041323828251415 -10.586520356823172