146

C -5.3564454929577465 1.0091607042253532 -0.0734429577464788
C -4.079135492957747 0.16955070422535368 -0.19788295774647868
C -4.333545492957747 -1.2789292957746463 0.3017270422535212
C -3.1403854929577464 -2.1745492957746464 0.7330270422535212
C -2.905235492957746 0.902300704225353 0.41966704225352136
C -2.7423854929577463 1.056130704225354 1.8024770422535212
C -1.8861754929577463 1.3499307042253532 -0.4326129577464788
C -1.5304554929577463 1.5279207042253526 2.3254170422535214
H -3.5237954929577464 0.7301007042253529 2.484817042253521
C -0.6776454929577462 1.8010507042253527 0.08546704225352131
H -1.9759254929577463 1.2426607042253535 -1.5115229577464788
C -0.4680254929577463 1.8513207042253539 1.4698070422535212
H -1.3950654929577464 1.5446707042253527 3.404047042253521
H 0.1461845070422536 1.9972507042253538 -0.6030529577464789
C -1.8679654929577463 -2.0866092957746467 -0.08765295774647863
C -0.6628654929577462 -1.814079295774647 0.5787970422535212
C -1.8438954929577462 -2.213429295774647 -1.4808029577464787
C 0.5129345070422537 -1.5763292957746469 -0.13022295774647863
H -0.6401854929577462 -1.7032692957746463 1.6609470422535213
C -0.6547954929577462 -1.9962392957746466 -2.1933129577464787
H -2.7578654929577464 -2.4351492957746466 -2.026182957746479
C 0.5308845070422537 -1.645769295774647 -1.5261029577464789
H 1.4044045070422537 -1.2610992957746463 0.41551704225352126
H -0.6795654929577464 -2.0467992957746466 -3.2793129577464786
C 1.7843245070422535 -1.2521692957746469 -2.2771629577464787
H 1.4981245070422535 -0.9384492957746469 -3.290282957746479
H 2.241984507042254 -0.38631929577464685 -1.8135029577464787
C 0.9385645070422537 2.0647807042253534 1.9815670422535212
H 1.0508945070422537 1.5807407042253532 2.9609770422535213
H 1.6053245070422537 1.5496207042253536 1.3096170422535214
C 3.9676945070422533 -1.6881692957746468 -3.314052957746479
H 4.795084507042254 -2.398849295774647 -3.4044129577464783
H 3.548404507042253 -1.4816192957746468 -4.303802957746479
H 4.307714507042253 -0.7637192957746466 -2.851282957746479
C 2.344694507042253 -3.565079295774647 -3.101282957746479
H 1.6334345070422536 -4.047909295774646 -2.4251929577464786
H 1.8561845070422536 -3.293109295774647 -4.041792957746479
H 3.1808045070422537 -4.243519295774647 -3.298122957746479
C 3.5156645070422536 -2.648489295774647 -1.1110629577464786
H 3.9311845070422535 -1.748249295774647 -0.6771029577464787
H 2.767184507042254 -3.1044092957746465 -0.45972295774647876
H 4.319224507042254 -3.371819295774647 -1.2863129577464787
C 2.963994507042253 3.381090704225353 2.401027042253521
H 3.3337945070422537 4.369820704225353 2.6912870422535216
H 3.120994507042253 2.671350704225353 3.2183370422535216
H 3.4665445070422534 3.0664207042253535 1.4881370422535212
C 1.2973745070422538 4.282440704225354 0.8488370422535213
H 1.7592145070422538 3.7367207042253527 0.02653704225352116
H 0.23311450704225378 4.4484607042253534 0.6605570422535213
H 1.7921845070422535 5.251370704225354 0.9736770422535213
C 0.7724845070422537 4.194670704225353 3.2772470422535216
H -0.2956954929577462 4.278220704225354 3.057857042253521
H 0.9298945070422537 3.612620704225354 4.190337042253521
H 1.2046345070422537 5.193640704225353 3.3918370422535213
N 2.876084507042253 -2.324759295774647 -2.4576629577464786
N 1.4527845070422536 3.504690704225353 2.1388470422535213
C -3.593905492957746 -3.637819295774647 0.8297870422535213
H -2.8952554929577463 -1.8680692957746468 1.7595270422535212
H -5.022615492957747 -1.2402792957746467 1.1579970422535213
H -4.898275492957747 -1.7933092957746464 -0.48931295774647876
H -3.883675492957746 0.07871070422535364 -1.2758929577464788
H -3.8751654929577466 -4.038529295774646 -0.1505529577464788
H -4.4603554929577465 -3.7321892957746465 1.4932570422535212
H -2.7953554929577464 -4.271929295774647 1.2313670422535212
H -5.648775492957746 1.147700704225353 0.9733970422535213
H -6.189795492957747 0.5254307042253537 -0.5943629577464788
H -5.2178854929577465 2.002970704225354 -0.5139729577464787
C 3.6710445070422537 1.0263707042253536 -0.27764295774647874
O 2.7356545070422538 1.6631507042253526 -0.7327029577464788
O 3.650814507042253 0.3883007042253537 0.7790570422535212
O 4.756604507042254 0.8696707042253538 -0.8334829577464786
O -5.305901562779509 -10.27404015758259 0.5593286933976676
H -4.483827328454614 -10.125910719079183 0.06818820473092746
H -5.903959156827723 -9.587835320135207 0.22704571224294123
O -2.250139486898547 -0.8536666978335856 4.834171487461475
H -2.4649501940997887 -1.3066783866415144 4.004952501442045
H -1.2963341398929207 -0.6939290983050961 4.773333969264625
O 7.724111974330202 0.449283588243478 -6.75669817066796
H 7.546765872849788 -0.4558638862209472 -7.053723029325232
H 8.670054491648038 0.44557105401747 -6.5466007758244835
O -7.426116982530189 -3.6512546226553515 -0.43495265837003494
H -6.758343469468064 -3.687771087807885 0.2662694461913042
H -7.447267653644828 -2.716545016783126 -0.6895750181532816
O -11.313163997030014 -7.676023546761616 0.22831057091066764
H -10.967527418258285 -7.299088662920788 1.0513675590098384
H -11.228934993793064 -8.632926041400296 0.35560956960264534
O -8.828801962378499 1.092213632131258 8.197020616971272
H -8.051699536489954 0.5311646157818048 8.339509837024753
H -8.513674086813745 1.778831915680255 7.590216118769194
O -3.5379186785293806 4.366424530208809 -13.021491601131675
H -3.926121069316793 4.134649275318655 -13.878548479003582
H -4.305594683611284 4.535053025453212 -12.454746573704796
O -3.0351075763469164 -3.0925758754837753 -8.943218696129717
H -2.0752749334637164 -3.12656568898296 -9.071800759941677
H -3.3706983038722935 -2.734991736406442 -9.778966499823696
O -4.771003827277766 -0.6466535463211647 5.784450967871388
H -4.9449852187726355 -0.4227069237739718 4.857873533134703
H -5.493995348204726 -0.2197275945031667 6.268165177536574
O -0.9350280769983543 3.832318862625866 9.520353131706358
H -0.7497936639112277 4.1058295283811725 10.431312782199372
H -0.19694425337145316 4.199488751907299 9.011059026100023
O -7.080068494988216 2.4292990836819306 10.392695269060857
H -7.987476434820577 2.6945666493447322 10.60532477368456
H -6.943403909221506 2.7627891947719996 9.493212594907348
O 2.280041685594213 6.217588723218428 -13.813335717136516
H 3.186838777408736 6.230661041019282 -14.154679393925818
H 2.1314118841681893 7.12546073940219 -13.508968293356482
O -3.8160572507779333 5.6200423666094235 -3.873960684719876
H -3.239775992062535 6.053950150002494 -3.226974360857997
H -3.273336028384228 4.897214003103218 -4.223152288247829
O 3.8213711467321008 7.619293341413383 4.474849545163348
H 3.8188611742272753 8.529952561905588 4.143698762179897
H 3.8542300674395698 7.078250291289418 3.671634347633759
O -9.840037308404881 0.20667987022369738 5.146348339672196
H -9.852143214355058 0.16769901616638672 6.114491560976817
H -10.498902860876996 -0.4509718423827498 4.877364412696218
O -3.239186176519674 2.2299435016797395 -9.634934162496071
H -2.453759472793375 1.6769169693277237 -9.76234650290447
H -3.7519182544519314 2.0988693105043907 -10.446652905021459
O -1.2544269903169176 1.9187630235561857 -4.73815676908596
H -2.0556045425587564 2.3222816556949333 -4.371749072386435
H -0.7214464591235868 2.6754489391990544 -5.025071604423186
O -0.011935850049715313 8.66464202961545 6.560342083664608
H 0.3002499889452719 8.09266235084067 7.277521702658131
H -0.9134621129512306 8.35368659631417 6.388530966156922
O 3.4428067873817225 -4.518870902956742 8.151952219844002
H 3.365584759201651 -4.381820365348881 9.108101405591263
H 4.398589653119945 -4.522756534550524 7.9924970232264325
O 10.027582693128064 -1.6619884862050585 2.9571896859824003
H 9.978977864174261 -1.5611804659673387 1.9946707663978938
H 10.966409116783364 -1.5322308720865658 3.1590060681838326
O 1.0759104367160433 -10.24539741624301 -0.22219188476395635
H 0.9608886599646885 -11.206168215399535 -0.2737362274321131
H 1.9728016068434095 -10.098672143761 -0.55837616111049
O -1.2808625024853937 4.383937355256129 -1.1775103334059738
H -0.8503888804150312 4.934007558633654 -0.505883510715105
H -2.1538368570956243 4.789726409613587 -1.288022612617519
O -7.406393973688061 -11.18062928157141 3.9311568983570515
H -7.135169756505666 -11.695776790429992 3.1565422683437823
H -6.606589967753802 -11.139544688675217 4.476672757538126
O -11.374756490016832 -2.047730268954801 11.496839090531626
H -11.433586765193231 -2.4939220795405515 12.354987809454448
H -10.85732068429107 -1.2498498618837246 11.682873999258522
C -6.241927315823784 -6.073298613907735 -7.023453314897207
O -5.9786303226178 -6.144476822182738 -8.188968914679315
O -6.505224309029768 -6.002120405632731 -5.8579377151150975