146

C -5.3564454929577465 1.0091607042253532 -0.0734429577464788
C -4.079135492957747 0.16955070422535368 -0.19788295774647868
C -4.333545492957747 -1.2789292957746463 0.3017270422535212
C -3.1403854929577464 -2.1745492957746464 0.7330270422535212
C -2.905235492957746 0.902300704225353 0.41966704225352136
C -2.7423854929577463 1.056130704225354 1.8024770422535212
C -1.8861754929577463 1.3499307042253532 -0.4326129577464788
C -1.5304554929577463 1.5279207042253526 2.3254170422535214
H -3.5237954929577464 0.7301007042253529 2.484817042253521
C -0.6776454929577462 1.8010507042253527 0.08546704225352131
H -1.9759254929577463 1.2426607042253535 -1.5115229577464788
C -0.4680254929577463 1.8513207042253539 1.4698070422535212
H -1.3950654929577464 1.5446707042253527 3.404047042253521
H 0.1461845070422536 1.9972507042253538 -0.6030529577464789
C -1.8679654929577463 -2.0866092957746467 -0.08765295774647863
C -0.6628654929577462 -1.814079295774647 0.5787970422535212
C -1.8438954929577462 -2.213429295774647 -1.4808029577464787
C 0.5129345070422537 -1.5763292957746469 -0.13022295774647863
H -0.6401854929577462 -1.7032692957746463 1.6609470422535213
C -0.6547954929577462 -1.9962392957746466 -2.1933129577464787
H -2.7578654929577464 -2.4351492957746466 -2.026182957746479
C 0.5308845070422537 -1.645769295774647 -1.5261029577464789
H 1.4044045070422537 -1.2610992957746463 0.41551704225352126
H -0.6795654929577464 -2.0467992957746466 -3.2793129577464786
C 1.7843245070422535 -1.2521692957746469 -2.2771629577464787
H 1.4981245070422535 -0.9384492957746469 -3.290282957746479
H 2.241984507042254 -0.38631929577464685 -1.8135029577464787
C 0.9385645070422537 2.0647807042253534 1.9815670422535212
H 1.0508945070422537 1.5807407042253532 2.9609770422535213
H 1.6053245070422537 1.5496207042253536 1.3096170422535214
C 3.9676945070422533 -1.6881692957746468 -3.314052957746479
H 4.795084507042254 -2.398849295774647 -3.4044129577464783
H 3.548404507042253 -1.4816192957746468 -4.303802957746479
H 4.307714507042253 -0.7637192957746466 -2.851282957746479
C 2.344694507042253 -3.565079295774647 -3.101282957746479
H 1.6334345070422536 -4.047909295774646 -2.4251929577464786
H 1.8561845070422536 -3.293109295774647 -4.041792957746479
H 3.1808045070422537 -4.243519295774647 -3.298122957746479
C 3.5156645070422536 -2.648489295774647 -1.1110629577464786
H 3.9311845070422535 -1.748249295774647 -0.6771029577464787
H 2.767184507042254 -3.1044092957746465 -0.45972295774647876
H 4.319224507042254 -3.371819295774647 -1.2863129577464787
C 2.963994507042253 3.381090704225353 2.401027042253521
H 3.3337945070422537 4.369820704225353 2.6912870422535216
H 3.120994507042253 2.671350704225353 3.2183370422535216
H 3.4665445070422534 3.0664207042253535 1.4881370422535212
C 1.2973745070422538 4.282440704225354 0.8488370422535213
H 1.7592145070422538 3.7367207042253527 0.02653704225352116
H 0.23311450704225378 4.4484607042253534 0.6605570422535213
H 1.7921845070422535 5.251370704225354 0.9736770422535213
C 0.7724845070422537 4.194670704225353 3.2772470422535216
H -0.2956954929577462 4.278220704225354 3.057857042253521
H 0.9298945070422537 3.612620704225354 4.190337042253521
H 1.2046345070422537 5.193640704225353 3.3918370422535213
N 2.876084507042253 -2.324759295774647 -2.4576629577464786
N 1.4527845070422536 3.504690704225353 2.1388470422535213
C -3.593905492957746 -3.637819295774647 0.8297870422535213
H -2.8952554929577463 -1.8680692957746468 1.7595270422535212
H -5.022615492957747 -1.2402792957746467 1.1579970422535213
H -4.898275492957747 -1.7933092957746464 -0.48931295774647876
H -3.883675492957746 0.07871070422535364 -1.2758929577464788
H -3.8751654929577466 -4.038529295774646 -0.1505529577464788
H -4.4603554929577465 -3.7321892957746465 1.4932570422535212
H -2.7953554929577464 -4.271929295774647 1.2313670422535212
H -5.648775492957746 1.147700704225353 0.9733970422535213
H -6.189795492957747 0.5254307042253537 -0.5943629577464788
H -5.2178854929577465 2.002970704225354 -0.5139729577464787
C 3.6710445070422537 1.0263707042253536 -0.27764295774647874
O 2.7356545070422538 1.6631507042253526 -0.7327029577464788
O 3.650814507042253 0.3883007042253537 0.7790570422535212
O 4.756604507042254 0.8696707042253538 -0.8334829577464786
O -5.790323663380296 1.7915340696123243 -3.174245059253449
H -6.307281549883928 2.6023935837667533 -3.054960740137554
H -6.2371038141312765 1.3340919070651691 -3.9023220532033425
O -8.545990187341943 5.203935828631513 -5.498853462132944
H -8.084616799405818 4.789310424945491 -6.243291322818806
H -8.121392262190836 6.070800028638588 -5.41385343270077
O -3.600132388158058 6.240971786433657 -7.5257767013114805
H -3.616253849432003 6.121927025467582 -8.487304548164042
H -2.656921758372179 6.227875511475285 -7.304091925692722
O -0.6793697936824454 -1.3975828351143798 10.088437771177828
H 0.06495699644107544 -1.3255683855966232 10.704683586956785
H -0.8135913450983088 -0.490049047759475 9.776461899923687
O 5.631099023283568 5.821595818132135 -0.1788119898988425
H 6.308575063421938 5.37881255652249 0.3540449845105751
H 5.539455908215608 6.6925920314828735 0.23583132680759533
O -7.551584365374286 6.754720765708649 3.9541572259734385
H -7.666096721974578 6.925100682403139 3.0071487988340455
H -7.364545925003188 7.628792576455748 4.328292276163655
O 7.536732369615901 -5.290627742415392 10.903247838824754
H 7.05376570138524 -5.905197460396577 11.475973441551488
H 7.50757512061859 -4.450124679827584 11.38456519869392
O 4.9652860774329675 7.4241707118008575 4.528684560426677
H 4.909201823672024 7.819491234910436 5.411602222153097
H 4.210912935532335 7.804098796372293 4.053776403376445
O -1.7901358699376833 -1.6296158866391464 3.840519992424581
H -2.6071892371585834 -1.1859379112314978 4.113541980826909
H -2.0145936558802537 -2.0286111467287604 2.9864805149671394
O -3.2523310172990065 -14.592226014775752 6.8138405363415515
H -2.7123534431111542 -15.291607688226875 7.211655632981822
H -2.7319721227474445 -14.300525952174146 6.050230924930528
O -3.4655797428557937 0.23392772109836946 -6.221036468337674
H -3.8256842072663924 -0.49488436783985024 -5.693660823631678
H -3.4853181937687014 0.9916785738232297 -5.617392547594405
O 0.9746145201811885 3.0029435477172655 10.495904087294623
H 0.31531497567480843 2.294406670356716 10.543516700474775
H 0.5832446139188363 3.6462330730820156 9.886010549594648
O 4.983036775552523 -6.553331386152206 0.6036207629252488
H 5.469616070276641 -7.122505621277649 1.2186399796292067
H 4.891769357948332 -5.715729983570989 1.0822188126264967
O -5.28909502960137 0.9183463449502305 -7.5340825223338825
H -5.052747383310043 1.7611174804931882 -7.9498275885561815
H -5.6319036621167085 1.1742746256121521 -6.664631603115095
O 3.046819937611396 -6.076854357121041 13.461090007605929
H 3.847709664686229 -6.30829905664525 13.9550296324875
H 2.9650323833873515 -6.783694153446586 12.803328468289047
O -9.0676411013982 -9.668756434343823 -1.927382078628726
H -8.679008555782888 -9.317419021268925 -2.7425471683880973
H -9.429198182034842 -10.527994668058149 -2.191859070945628
O -0.17101866933555643 -13.978402705351474 8.124658733987888
H -0.8591348264724687 -13.895596172716857 7.4474537507367575
H 0.14506886902383043 -13.070932403606932 8.24935141158195
O -10.307975591182789 -15.184970895965478 -0.20502351110521833
H -11.209728618453664 -15.324853740804313 0.12092376136013305
H -10.424858907887165 -14.614050368339601 -0.9792004842267237
O 3.1280120448359185 -9.891588560538224 6.494948118214737
H 3.4348954074681357 -9.85708005429498 7.413424640307928
H 3.8721643940791552 -9.536340997032449 5.9860292700287205
O -7.824307560304341 -9.198479629249306 2.2426340499380544
H -7.398391460010476 -10.006660594109157 1.9195143191126744
H -7.5609804463509445 -8.522312669512631 1.600435468565096
O -0.19957050607956983 9.429259948073856 8.899515008075678
H -0.5065021418560463 9.908052833890165 8.114965646753351
H -0.4471531473384456 10.006249688505111 9.637585207639614
O -5.156688562544964 4.709060385403165 -3.572058807010503
H -5.186225226676709 4.9127282668597845 -4.5189560223591085
H -4.441173976571285 4.0602371263833685 -3.4944108829310987
O 3.9777271452949257 -11.21245836972605 1.4237663283139073
H 4.850033386981325 -11.437773842726852 1.7805325195952209
H 4.176477782676047 -10.70017857894889 0.6256250222772464
O -4.131573474811278 -3.2808479530634007 -4.805819767346508
H -4.474751642892568 -2.659667466248381 -5.465615875741083
H -3.821487716073988 -2.7105272598070247 -4.0864151014095365
C -0.34760855850122785 6.117935081266234 3.1058550828876212
O -0.1033262538284001 5.48795359169796 2.117792465577832
O -0.5918908631740558 6.747916570834508 4.0939177001974105