146

C -5.3564454929577465 1.0091607042253532 -0.0734429577464788
C -4.079135492957747 0.16955070422535368 -0.19788295774647868
C -4.333545492957747 -1.2789292957746463 0.3017270422535212
C -3.1403854929577464 -2.1745492957746464 0.7330270422535212
C -2.905235492957746 0.902300704225353 0.41966704225352136
C -2.7423854929577463 1.056130704225354 1.8024770422535212
C -1.8861754929577463 1.3499307042253532 -0.4326129577464788
C -1.5304554929577463 1.5279207042253526 2.3254170422535214
H -3.5237954929577464 0.7301007042253529 2.484817042253521
C -0.6776454929577462 1.8010507042253527 0.08546704225352131
H -1.9759254929577463 1.2426607042253535 -1.5115229577464788
C -0.4680254929577463 1.8513207042253539 1.4698070422535212
H -1.3950654929577464 1.5446707042253527 3.404047042253521
H 0.1461845070422536 1.9972507042253538 -0.6030529577464789
C -1.8679654929577463 -2.0866092957746467 -0.08765295774647863
C -0.6628654929577462 -1.814079295774647 0.5787970422535212
C -1.8438954929577462 -2.213429295774647 -1.4808029577464787
C 0.5129345070422537 -1.5763292957746469 -0.13022295774647863
H -0.6401854929577462 -1.7032692957746463 1.6609470422535213
C -0.6547954929577462 -1.9962392957746466 -2.1933129577464787
H -2.7578654929577464 -2.4351492957746466 -2.026182957746479
C 0.5308845070422537 -1.645769295774647 -1.5261029577464789
H 1.4044045070422537 -1.2610992957746463 0.41551704225352126
H -0.6795654929577464 -2.0467992957746466 -3.2793129577464786
C 1.7843245070422535 -1.2521692957746469 -2.2771629577464787
H 1.4981245070422535 -0.9384492957746469 -3.290282957746479
H 2.241984507042254 -0.38631929577464685 -1.8135029577464787
C 0.9385645070422537 2.0647807042253534 1.9815670422535212
H 1.0508945070422537 1.5807407042253532 2.9609770422535213
H 1.6053245070422537 1.5496207042253536 1.3096170422535214
C 3.9676945070422533 -1.6881692957746468 -3.314052957746479
H 4.795084507042254 -2.398849295774647 -3.4044129577464783
H 3.548404507042253 -1.4816192957746468 -4.303802957746479
H 4.307714507042253 -0.7637192957746466 -2.851282957746479
C 2.344694507042253 -3.565079295774647 -3.101282957746479
H 1.6334345070422536 -4.047909295774646 -2.4251929577464786
H 1.8561845070422536 -3.293109295774647 -4.041792957746479
H 3.1808045070422537 -4.243519295774647 -3.298122957746479
C 3.5156645070422536 -2.648489295774647 -1.1110629577464786
H 3.9311845070422535 -1.748249295774647 -0.6771029577464787
H 2.767184507042254 -3.1044092957746465 -0.45972295774647876
H 4.319224507042254 -3.371819295774647 -1.2863129577464787
C 2.963994507042253 3.381090704225353 2.401027042253521
H 3.3337945070422537 4.369820704225353 2.6912870422535216
H 3.120994507042253 2.671350704225353 3.2183370422535216
H 3.4665445070422534 3.0664207042253535 1.4881370422535212
C 1.2973745070422538 4.282440704225354 0.8488370422535213
H 1.7592145070422538 3.7367207042253527 0.02653704225352116
H 0.23311450704225378 4.4484607042253534 0.6605570422535213
H 1.7921845070422535 5.251370704225354 0.9736770422535213
C 0.7724845070422537 4.194670704225353 3.2772470422535216
H -0.2956954929577462 4.278220704225354 3.057857042253521
H 0.9298945070422537 3.612620704225354 4.190337042253521
H 1.2046345070422537 5.193640704225353 3.3918370422535213
N 2.876084507042253 -2.324759295774647 -2.4576629577464786
N 1.4527845070422536 3.504690704225353 2.1388470422535213
C -3.593905492957746 -3.637819295774647 0.8297870422535213
H -2.8952554929577463 -1.8680692957746468 1.7595270422535212
H -5.022615492957747 -1.2402792957746467 1.1579970422535213
H -4.898275492957747 -1.7933092957746464 -0.48931295774647876
H -3.883675492957746 0.07871070422535364 -1.2758929577464788
H -3.8751654929577466 -4.038529295774646 -0.1505529577464788
H -4.4603554929577465 -3.7321892957746465 1.4932570422535212
H -2.7953554929577464 -4.271929295774647 1.2313670422535212
H -5.648775492957746 1.147700704225353 0.9733970422535213
H -6.189795492957747 0.5254307042253537 -0.5943629577464788
H -5.2178854929577465 2.002970704225354 -0.5139729577464787
C 3.6710445070422537 1.0263707042253536 -0.27764295774647874
O 2.7356545070422538 1.6631507042253526 -0.7327029577464788
O 3.650814507042253 0.3883007042253537 0.7790570422535212
O 4.756604507042254 0.8696707042253538 -0.8334829577464786
O 9.1020061188846 0.5476840403206751 0.22344950579084655
H 9.368883766799135 0.9276057240984592 -0.6270816177661103
H 8.164083187005767 0.3369019559201831 0.10165693191377967
O 3.8109916025646773 -10.485119147009852 -9.312842624844615
H 4.639839644550447 -10.513866475005061 -9.813993172414397
H 3.7898609180584057 -9.58821531570021 -8.946674690893017
O 0.49115427213696794 -1.6468483520865906 -6.623110049863939
H 0.4862848007625493 -1.4313087276306466 -7.567824988582453
H 0.8333495822791377 -2.552864726538652 -6.591508732779905
O -2.0825634088346803 -2.65284796770936 -9.79625183417018
H -2.577334231596233 -2.997760916582521 -9.037829624880736
H -2.578747112317318 -2.9729422887994046 -10.564563816573264
O -3.9842744131643917 1.9429705167894826 -5.405207850369975
H -3.974795812209394 1.167284077578973 -4.824528884805648
H -4.820192094089559 1.8631511757207826 -5.888770098491196
O -1.0826697730184849 8.98287934804726 5.0662268100447125
H -1.6345512203060897 9.625549435580464 5.536725889352851
H -0.503144634517027 8.623584382861031 5.754717685900515
O -2.9153729726913307 5.733352595922661 -7.099640975153435
H -2.842696582952879 5.69216274181029 -8.06503669463472
H -2.4164146040951904 4.960888441646796 -6.794187834611797
O -0.5015880901566518 -1.0227653067714417 12.929006016915565
H -1.2087643420866243 -1.6808944314007706 12.853275171674603
H -0.9678333021956558 -0.20260489067963494 13.150171652643216
O -9.306388849555802 -2.307614750190261 -1.5110108574176553
H -10.01912675664289 -2.0439212671436544 -2.112207813248161
H -9.7199655528903 -2.2881629590378045 -0.6349184635573222
O -7.57049169216042 4.326118228416978 -4.089211743484248
H -7.2151703421263775 3.492533053797167 -3.7459190815119237
H -8.350483477735088 4.492388067883506 -3.538821791523082
O -6.962005674096137 -7.864208644798801 -4.5025480120511805
H -6.958805455592911 -7.8656548255880425 -5.4715449284872735
H -6.725868464604347 -6.953885691754104 -4.269067212512087
O 7.508661051389654 7.680701244276676 7.264914076967571
H 8.06078354281916 7.574102550447238 6.475759573824154
H 7.893354993651978 8.445948226857048 7.7180912727070625
O 5.571632237351688 4.550781502005581 -5.796051466645833
H 6.228352690961449 4.802830217960866 -6.462502550744194
H 6.072733119732438 4.538026434315711 -4.966776386696207
O 3.103388180844789 -7.2830008831872295 -2.5221346397443236
H 2.934798141113008 -6.466765981848913 -2.0278621023315444
H 3.745454781050643 -7.759654785733459 -1.9748563902335778
O -0.37311206136068276 -7.56915350497805 -1.2005260944514702
H 0.07741827233533871 -7.628469429548051 -0.34468066657786217
H 0.006821249116518713 -8.296450546621177 -1.715940138795421
O 5.01074321195852 0.07341477280093162 -5.436923967882698
H 4.7768029965387955 0.056997475153320265 -6.377120652011781
H 5.4295667304230655 0.9386818547589243 -5.315015471210488
O -10.14033658692108 7.839591893429352 5.186405351308688
H -10.380102309204268 7.139633786785133 4.560675054566506
H -10.987435357363939 8.108836184355276 5.572272075992213
O 3.966975398472717 4.126653855520486 4.145950853290717
H 4.400849137014936 4.673130861273942 4.818322638902021
H 4.6808205066305 3.56975693011504 3.800620691947742
O -3.817934583042935 -11.42715665558999 -2.8527353172869154
H -4.052519055101845 -11.3718816659363 -1.914182091365429
H -4.197701974713851 -12.271223713585009 -3.1395967370196907
O 0.7817966438532609 0.8401961019286657 -4.924508528807375
H 1.0576799167092859 1.3661111747317793 -4.158826406215535
H -0.11325919288576736 0.546957070708646 -4.6968072684056335
O 3.2547559219694175 6.967108924144471 7.098302607770931
H 2.6706597981255094 7.298232430258857 7.79698443715326
H 2.819049642417453 6.1571041902209664 6.793320127486409
O -6.299574990578542 -6.7847690563556515 8.718805023285372
H -6.081373182526295 -6.963018469693934 7.791668315724244
H -5.723694358932123 -6.0425173865505695 8.956262179560122
O -1.5413567723521089 -3.2090963697366686 14.612530298650297
H -1.0809703147278715 -2.8290673751846587 15.375805890973279
H -0.8481552040145979 -3.297411149808754 13.94123749400002
O -3.6742093457669007 1.7847041147254301 -8.154374488908445
H -3.686286898391818 1.0779013647939744 -8.817134899850384
H -3.9816215775891832 2.5653914022316067 -8.63912908986886
C 10.250937104591786 -1.801359051553908 -5.014218215047082
O 10.795241971226524 -2.626425878282214 -5.689359089894862
O 9.70663223795705 -0.9762922248256026 -4.339077340199304