146

C -5.3564454929577465 1.0091607042253532 -0.0734429577464788
C -4.079135492957747 0.16955070422535368 -0.19788295774647868
C -4.333545492957747 -1.2789292957746463 0.3017270422535212
C -3.1403854929577464 -2.1745492957746464 0.7330270422535212
C -2.905235492957746 0.902300704225353 0.41966704225352136
C -2.7423854929577463 1.056130704225354 1.8024770422535212
C -1.8861754929577463 1.3499307042253532 -0.4326129577464788
C -1.5304554929577463 1.5279207042253526 2.3254170422535214
H -3.5237954929577464 0.7301007042253529 2.484817042253521
C -0.6776454929577462 1.8010507042253527 0.08546704225352131
H -1.9759254929577463 1.2426607042253535 -1.5115229577464788
C -0.4680254929577463 1.8513207042253539 1.4698070422535212
H -1.3950654929577464 1.5446707042253527 3.404047042253521
H 0.1461845070422536 1.9972507042253538 -0.6030529577464789
C -1.8679654929577463 -2.0866092957746467 -0.08765295774647863
C -0.6628654929577462 -1.814079295774647 0.5787970422535212
C -1.8438954929577462 -2.213429295774647 -1.4808029577464787
C 0.5129345070422537 -1.5763292957746469 -0.13022295774647863
H -0.6401854929577462 -1.7032692957746463 1.6609470422535213
C -0.6547954929577462 -1.9962392957746466 -2.1933129577464787
H -2.7578654929577464 -2.4351492957746466 -2.026182957746479
C 0.5308845070422537 -1.645769295774647 -1.5261029577464789
H 1.4044045070422537 -1.2610992957746463 0.41551704225352126
H -0.6795654929577464 -2.0467992957746466 -3.2793129577464786
C 1.7843245070422535 -1.2521692957746469 -2.2771629577464787
H 1.4981245070422535 -0.9384492957746469 -3.290282957746479
H 2.241984507042254 -0.38631929577464685 -1.8135029577464787
C 0.9385645070422537 2.0647807042253534 1.9815670422535212
H 1.0508945070422537 1.5807407042253532 2.9609770422535213
H 1.6053245070422537 1.5496207042253536 1.3096170422535214
C 3.9676945070422533 -1.6881692957746468 -3.314052957746479
H 4.795084507042254 -2.398849295774647 -3.4044129577464783
H 3.548404507042253 -1.4816192957746468 -4.303802957746479
H 4.307714507042253 -0.7637192957746466 -2.851282957746479
C 2.344694507042253 -3.565079295774647 -3.101282957746479
H 1.6334345070422536 -4.047909295774646 -2.4251929577464786
H 1.8561845070422536 -3.293109295774647 -4.041792957746479
H 3.1808045070422537 -4.243519295774647 -3.298122957746479
C 3.5156645070422536 -2.648489295774647 -1.1110629577464786
H 3.9311845070422535 -1.748249295774647 -0.6771029577464787
H 2.767184507042254 -3.1044092957746465 -0.45972295774647876
H 4.319224507042254 -3.371819295774647 -1.2863129577464787
C 2.963994507042253 3.381090704225353 2.401027042253521
H 3.3337945070422537 4.369820704225353 2.6912870422535216
H 3.120994507042253 2.671350704225353 3.2183370422535216
H 3.4665445070422534 3.0664207042253535 1.4881370422535212
C 1.2973745070422538 4.282440704225354 0.8488370422535213
H 1.7592145070422538 3.7367207042253527 0.02653704225352116
H 0.23311450704225378 4.4484607042253534 0.6605570422535213
H 1.7921845070422535 5.251370704225354 0.9736770422535213
C 0.7724845070422537 4.194670704225353 3.2772470422535216
H -0.2956954929577462 4.278220704225354 3.057857042253521
H 0.9298945070422537 3.612620704225354 4.190337042253521
H 1.2046345070422537 5.193640704225353 3.3918370422535213
N 2.876084507042253 -2.324759295774647 -2.4576629577464786
N 1.4527845070422536 3.504690704225353 2.1388470422535213
C -3.593905492957746 -3.637819295774647 0.8297870422535213
H -2.8952554929577463 -1.8680692957746468 1.7595270422535212
H -5.022615492957747 -1.2402792957746467 1.1579970422535213
H -4.898275492957747 -1.7933092957746464 -0.48931295774647876
H -3.883675492957746 0.07871070422535364 -1.2758929577464788
H -3.8751654929577466 -4.038529295774646 -0.1505529577464788
H -4.4603554929577465 -3.7321892957746465 1.4932570422535212
H -2.7953554929577464 -4.271929295774647 1.2313670422535212
H -5.648775492957746 1.147700704225353 0.9733970422535213
H -6.189795492957747 0.5254307042253537 -0.5943629577464788
H -5.2178854929577465 2.002970704225354 -0.5139729577464787
C 3.6710445070422537 1.0263707042253536 -0.27764295774647874
O 2.7356545070422538 1.6631507042253526 -0.7327029577464788
O 3.650814507042253 0.3883007042253537 0.7790570422535212
O 4.756604507042254 0.8696707042253538 -0.8334829577464786
O -5.194557418940321 -10.228814113154359 -4.766045772329122
H -5.978580586900218 -10.632511320567147 -4.364419585770969
H -4.760673836616073 -9.775220856610002 -4.027831617149906
O -1.6774833275301169 12.492986968147328 -3.210621833494876
H -1.0297830685917093 13.198544740482403 -3.0635165604123307
H -1.4739124888079744 11.841292925684172 -2.5230058556845907
O 1.8749626135610753 -10.90756381179585 6.890406415106784
H 1.9119149779509481 -11.869935379113576 6.783435175586887
H 1.153364114495544 -10.769837585343568 7.522299631555249
O -8.052959369098307 -7.533594140620904 -4.033075597560246
H -8.045016726351697 -6.574556143284688 -3.894690659826611
H -8.325828010757432 -7.891641934675451 -3.1749926028145286
O 3.310654013327336 -4.3189459040491816 2.3896668900194524
H 3.1465667649471194 -4.231613521878341 1.4386591156856272
H 2.621616142012596 -3.7729413917144674 2.797181096770802
O -2.328877573132955 6.093482039775801 -8.885353770222695
H -2.600041705157416 6.198763095402505 -9.809666092833158
H -1.6253225972624383 5.428186792176213 -8.922158304579717
O 8.827156222134928 2.915906563983455 -4.243645045090349
H 8.821244765871024 3.0723909766196194 -3.2873788477442574
H 9.666772789055917 2.4583912796820986 -4.400761974421538
O 4.4576542789476274 2.5005268591554133 -9.129718128878258
H 4.784670977456937 1.6963667612734041 -8.69919057718096
H 5.0810996389174505 2.646737236133848 -9.856973485060614
O -4.264525070866345 -3.9515477318956433 -5.682339317437642
H -4.058357745689285 -3.730319181898203 -4.761730649438385
H -3.3955553589202108 -4.047440972719429 -6.100260446820407
O 2.493858959884008 -10.475820965797661 -2.002542717788436
H 2.898509522000926 -9.618375009116132 -2.202571992768275
H 3.2352799976916904 -11.018356340288356 -1.6944645516967458
O 6.421032651259292 2.281683125314194 3.6196447883613554
H 6.341044631034062 2.2101273116661635 2.6566032321169653
H 5.58728759143865 2.6923177804886698 3.893889750930247
O -9.790756342599407 -2.504124510878622 -0.43630709411803115
H -10.65878670863874 -2.9185754798749866 -0.5534439151078371
H -9.323330242891027 -3.1052433405687117 0.16296825011317317
O -14.936802308388739 -1.4672207677620261 0.16052345393305245
H -15.707447993044095 -1.4407875333252584 -0.42631031276693054
H -14.412440709172376 -2.209784736161486 -0.17504414045308891
O 8.570217680783283 6.985174326715414 5.564459500196225
H 8.105400061149581 7.820709618469028 5.407002478719692
H 9.21538519201331 6.936699863267494 4.843092011916713
O -6.901204204052703 -0.7422170878329393 9.788476377277854
H -7.5049669579997 -0.06239370648744025 10.123555567951207
H -6.2588003399389285 -0.8582712524735077 10.504584365322446
O 7.922030244894118 5.0673231652337485 -10.739222759357217
H 8.042305816464483 4.599272227160549 -11.579121243194532
H 7.053679062891514 5.488088820779334 -10.828017084220775
O -8.215281537603536 -6.577619571518733 6.169519057140511
H -8.085330042848064 -5.628283307627544 6.3138818777417205
H -9.126922536429305 -6.735528531244369 6.4575075881592285
O -5.85432514629124 -7.010635992184939 4.264549845619178
H -6.36192723984051 -6.280601065478669 4.649720557529326
H -5.003705091820439 -6.608034337505446 4.03363996085582
O -3.589123292629391 12.3526923405757 7.084909359917486
H -2.972099129639745 11.711291910930587 7.468124740660478
H -3.9895257129212194 11.877051796655781 6.341669210905061
O -3.631815625078188 2.806537843654912 0.9423224238873624
H -3.4038841844114076 3.679594059616115 1.2955751082750018
H -4.015423243779308 2.998473462401994 0.07343356020534375
O 0.4143781074460491 6.597850262841679 -1.0916995980473676
H 0.22963471948094094 5.691760102533297 -1.381247277878347
H 0.31120097256506485 7.126585216398723 -1.8971533658235091
O -5.100227177771567 7.8349429573041975 4.552642049744492
H -4.465203080524947 7.657198213473563 5.262655119241596
H -5.351785888973538 6.9537879531193205 4.237608690053247
O -12.534889123969268 1.9542587539058633 8.850132749686402
H -13.255055634262995 1.3838187652900213 9.15823301541059
H -12.886473684378434 2.3600352381651453 8.04347564409316
O -2.8351528414284535 -3.4007159482116815 8.8728538280051
H -3.6146128375240134 -3.973378249019494 8.81396952941699
H -2.150060722727315 -3.8875658343132207 8.390580128124522
C -2.9567327736959226 3.623458825399759 -4.32980690671673
O -2.375021543654017 4.656813134179757 -4.16668371808634
O -3.538444003737828 2.5901045166197605 -4.49293009534712