146

C -5.3564454929577465 1.0091607042253532 -0.0734429577464788
C -4.079135492957747 0.16955070422535368 -0.19788295774647868
C -4.333545492957747 -1.2789292957746463 0.3017270422535212
C -3.1403854929577464 -2.1745492957746464 0.7330270422535212
C -2.905235492957746 0.902300704225353 0.41966704225352136
C -2.7423854929577463 1.056130704225354 1.8024770422535212
C -1.8861754929577463 1.3499307042253532 -0.4326129577464788
C -1.5304554929577463 1.5279207042253526 2.3254170422535214
H -3.5237954929577464 0.7301007042253529 2.484817042253521
C -0.6776454929577462 1.8010507042253527 0.08546704225352131
H -1.9759254929577463 1.2426607042253535 -1.5115229577464788
C -0.4680254929577463 1.8513207042253539 1.4698070422535212
H -1.3950654929577464 1.5446707042253527 3.404047042253521
H 0.1461845070422536 1.9972507042253538 -0.6030529577464789
C -1.8679654929577463 -2.0866092957746467 -0.08765295774647863
C -0.6628654929577462 -1.814079295774647 0.5787970422535212
C -1.8438954929577462 -2.213429295774647 -1.4808029577464787
C 0.5129345070422537 -1.5763292957746469 -0.13022295774647863
H -0.6401854929577462 -1.7032692957746463 1.6609470422535213
C -0.6547954929577462 -1.9962392957746466 -2.1933129577464787
H -2.7578654929577464 -2.4351492957746466 -2.026182957746479
C 0.5308845070422537 -1.645769295774647 -1.5261029577464789
H 1.4044045070422537 -1.2610992957746463 0.41551704225352126
H -0.6795654929577464 -2.0467992957746466 -3.2793129577464786
C 1.7843245070422535 -1.2521692957746469 -2.2771629577464787
H 1.4981245070422535 -0.9384492957746469 -3.290282957746479
H 2.241984507042254 -0.38631929577464685 -1.8135029577464787
C 0.9385645070422537 2.0647807042253534 1.9815670422535212
H 1.0508945070422537 1.5807407042253532 2.9609770422535213
H 1.6053245070422537 1.5496207042253536 1.3096170422535214
C 3.9676945070422533 -1.6881692957746468 -3.314052957746479
H 4.795084507042254 -2.398849295774647 -3.4044129577464783
H 3.548404507042253 -1.4816192957746468 -4.303802957746479
H 4.307714507042253 -0.7637192957746466 -2.851282957746479
C 2.344694507042253 -3.565079295774647 -3.101282957746479
H 1.6334345070422536 -4.047909295774646 -2.4251929577464786
H 1.8561845070422536 -3.293109295774647 -4.041792957746479
H 3.1808045070422537 -4.243519295774647 -3.298122957746479
C 3.5156645070422536 -2.648489295774647 -1.1110629577464786
H 3.9311845070422535 -1.748249295774647 -0.6771029577464787
H 2.767184507042254 -3.1044092957746465 -0.45972295774647876
H 4.319224507042254 -3.371819295774647 -1.2863129577464787
C 2.963994507042253 3.381090704225353 2.401027042253521
H 3.3337945070422537 4.369820704225353 2.6912870422535216
H 3.120994507042253 2.671350704225353 3.2183370422535216
H 3.4665445070422534 3.0664207042253535 1.4881370422535212
C 1.2973745070422538 4.282440704225354 0.8488370422535213
H 1.7592145070422538 3.7367207042253527 0.02653704225352116
H 0.23311450704225378 4.4484607042253534 0.6605570422535213
H 1.7921845070422535 5.251370704225354 0.9736770422535213
C 0.7724845070422537 4.194670704225353 3.2772470422535216
H -0.2956954929577462 4.278220704225354 3.057857042253521
H 0.9298945070422537 3.612620704225354 4.190337042253521
H 1.2046345070422537 5.193640704225353 3.3918370422535213
N 2.876084507042253 -2.324759295774647 -2.4576629577464786
N 1.4527845070422536 3.504690704225353 2.1388470422535213
C -3.593905492957746 -3.637819295774647 0.8297870422535213
H -2.8952554929577463 -1.8680692957746468 1.7595270422535212
H -5.022615492957747 -1.2402792957746467 1.1579970422535213
H -4.898275492957747 -1.7933092957746464 -0.48931295774647876
H -3.883675492957746 0.07871070422535364 -1.2758929577464788
H -3.8751654929577466 -4.038529295774646 -0.1505529577464788
H -4.4603554929577465 -3.7321892957746465 1.4932570422535212
H -2.7953554929577464 -4.271929295774647 1.2313670422535212
H -5.648775492957746 1.147700704225353 0.9733970422535213
H -6.189795492957747 0.5254307042253537 -0.5943629577464788
H -5.2178854929577465 2.002970704225354 -0.5139729577464787
C 3.6710445070422537 1.0263707042253536 -0.27764295774647874
O 2.7356545070422538 1.6631507042253526 -0.7327029577464788
O 3.650814507042253 0.3883007042253537 0.7790570422535212
O 4.756604507042254 0.8696707042253538 -0.8334829577464786
O -9.833708772709292 -5.244153486964304 2.5191360360866533
H -9.90842705129495 -4.302155816552795 2.7336702400833293
H -10.045685442500993 -5.691454306795047 3.3521725372933915
O -6.209434078825471 10.350483838491403 4.640925784102088
H -6.626596398984949 9.72527486971073 4.029324033863118
H -6.025362738859819 11.127463255462736 4.091942476791079
O 0.6535265786593338 -3.2598731141502078 -7.477755825285002
H 1.4874579197374802 -2.8038809707938106 -7.28908404555935
H 0.038109453520724035 -2.904273173729533 -6.819141834575012
O 4.6774997906776905 6.986058390660722 -3.646770413378447
H 4.9668892886877085 7.099001824635442 -2.7289115701658817
H 5.06220048513676 6.1367449532284635 -3.9106529724453747
O 14.328753279873139 3.5463091255544126 5.577650877158605
H 14.420765596347259 3.0403416605876163 6.398929158201116
H 13.379480180462213 3.5113237825647894 5.386291130057303
O -1.5936806266295962 -12.861244217602563 -2.6490114553976096
H -1.8549812234244512 -13.709276884658774 -2.2597429739864046
H -2.1134587441401997 -12.207876030420206 -2.1571754412270594
O 5.524620339035902 -9.476110330787918 8.893745878502285
H 6.2748560036125065 -10.088616967642036 8.924558608127594
H 5.326090878209669 -9.396539039733486 7.948644610317773
O 0.6277902302743322 -7.142478696283881 -3.1754691054626365
H 0.4752534033302086 -7.33581626049991 -2.2382815790898016
H 1.1438153563284394 -7.900038966978956 -3.4897658598926613
O 0.24253226416683704 -6.38008033490912 -8.481008966032018
H 1.0436049110546743 -6.5079384741086805 -7.951006826839596
H 0.28166357926901664 -7.0900228229738405 -9.139349567938694
O 4.580792963465042 2.8897565022125464 11.912710108031687
H 4.501503081565232 2.8104516749284967 12.875202298076761
H 5.535829290758668 2.951380749374232 11.760821958358134
O 8.69845549297142 -2.957292088370015 5.78053423347411
H 8.603961172957439 -3.396461331152395 6.639119439833413
H 8.033339637694285 -2.252977888066945 5.803432936721531
O 7.724803454245739 1.6630948672589136 0.14820563474034176
H 8.026905399444551 1.66735959756496 -0.7724917008062056
H 8.53476114074033 1.5168993552246386 0.6596324258349899
O 7.934612063076495 8.478511462927669 2.538855266279234
H 8.2175942805384 8.922530193203023 3.3523267093336346
H 8.26240906103126 9.054276763442285 1.8317446729805917
O -6.376209560459481 -1.6349260766836409 -4.748098653168716
H -7.07768831177606 -1.0062845697781455 -4.975485491281477
H -5.587994172472172 -1.0801578922444097 -4.648546114406436
O 9.021707941876082 -7.2040487393771775 1.576086384186003
H 9.007905429102639 -8.053462062207668 2.042212820401765
H 8.819379577671809 -7.437722455421988 0.6577064128406818
O 8.598767109709469 -1.79015998378122 3.695638278368241
H 8.424365895481282 -2.6556360026236048 3.2962602191505725
H 8.071596047729924 -1.1760118768068697 3.16283933091134
O -3.486943049034098 -0.4771390620020026 -5.50551097993774
H -4.065226669337498 -0.8835949807329828 -6.168345044781536
H -3.6526063394866206 0.47277727949644444 -5.601305356863779
O -10.63915827258134 -0.745299012743228 -6.219613444400285
H -11.295886390458428 -1.4285251643515702 -6.017431442609636
H -9.895961303763674 -0.9544320300838649 -5.634050816752112
O 0.730103486071175 6.765028913632394 -6.6642658543934274
H 1.2760653095920902 5.975468782463749 -6.532024244350788
H 1.25446546234435 7.480260330344642 -6.273816776168519
O 8.476439486511095 -1.3731576888188672 -5.015798127516941
H 9.277488350097295 -1.0269571542023543 -4.594569846321936
H 8.806003614700256 -2.054171759741665 -5.621247766146015
O 3.920965489730107 7.71225562533126 -9.389823786748462
H 4.005286490895516 8.35729173081857 -8.671641533918285
H 4.4408169832465445 8.096435344520717 -10.111711806009232
O 5.265467082531466 9.564076939886412 0.43870377842354236
H 4.739388913597139 9.17529133332493 1.1535847959371763
H 4.714123198063482 9.444771160674964 -0.349171843998235
O 1.3069377854367776 -8.44024732564659 2.6878617673832634
H 0.8005683787056719 -9.236728924489858 2.4683749943629714
H 0.6609340893944524 -7.722530828902698 2.607089251628646
O -7.316348228290799 -10.54262583122284 -6.561838947501761
H -7.34198528995889 -10.820267984752324 -7.489861001416717
H -6.4197905238904704 -10.193512900888342 -6.4466591365378925
C -3.415271459463651 -4.161229000958432 6.221082428026369
O -3.4458917350966582 -4.1852856726364 7.417452743843314
O -3.384651183830644 -4.137172329280466 5.024712112209423