146

C -5.3564454929577465 1.0091607042253532 -0.0734429577464788
C -4.079135492957747 0.16955070422535368 -0.19788295774647868
C -4.333545492957747 -1.2789292957746463 0.3017270422535212
C -3.1403854929577464 -2.1745492957746464 0.7330270422535212
C -2.905235492957746 0.902300704225353 0.41966704225352136
C -2.7423854929577463 1.056130704225354 1.8024770422535212
C -1.8861754929577463 1.3499307042253532 -0.4326129577464788
C -1.5304554929577463 1.5279207042253526 2.3254170422535214
H -3.5237954929577464 0.7301007042253529 2.484817042253521
C -0.6776454929577462 1.8010507042253527 0.08546704225352131
H -1.9759254929577463 1.2426607042253535 -1.5115229577464788
C -0.4680254929577463 1.8513207042253539 1.4698070422535212
H -1.3950654929577464 1.5446707042253527 3.404047042253521
H 0.1461845070422536 1.9972507042253538 -0.6030529577464789
C -1.8679654929577463 -2.0866092957746467 -0.08765295774647863
C -0.6628654929577462 -1.814079295774647 0.5787970422535212
C -1.8438954929577462 -2.213429295774647 -1.4808029577464787
C 0.5129345070422537 -1.5763292957746469 -0.13022295774647863
H -0.6401854929577462 -1.7032692957746463 1.6609470422535213
C -0.6547954929577462 -1.9962392957746466 -2.1933129577464787
H -2.7578654929577464 -2.4351492957746466 -2.026182957746479
C 0.5308845070422537 -1.645769295774647 -1.5261029577464789
H 1.4044045070422537 -1.2610992957746463 0.41551704225352126
H -0.6795654929577464 -2.0467992957746466 -3.2793129577464786
C 1.7843245070422535 -1.2521692957746469 -2.2771629577464787
H 1.4981245070422535 -0.9384492957746469 -3.290282957746479
H 2.241984507042254 -0.38631929577464685 -1.8135029577464787
C 0.9385645070422537 2.0647807042253534 1.9815670422535212
H 1.0508945070422537 1.5807407042253532 2.9609770422535213
H 1.6053245070422537 1.5496207042253536 1.3096170422535214
C 3.9676945070422533 -1.6881692957746468 -3.314052957746479
H 4.795084507042254 -2.398849295774647 -3.4044129577464783
H 3.548404507042253 -1.4816192957746468 -4.303802957746479
H 4.307714507042253 -0.7637192957746466 -2.851282957746479
C 2.344694507042253 -3.565079295774647 -3.101282957746479
H 1.6334345070422536 -4.047909295774646 -2.4251929577464786
H 1.8561845070422536 -3.293109295774647 -4.041792957746479
H 3.1808045070422537 -4.243519295774647 -3.298122957746479
C 3.5156645070422536 -2.648489295774647 -1.1110629577464786
H 3.9311845070422535 -1.748249295774647 -0.6771029577464787
H 2.767184507042254 -3.1044092957746465 -0.45972295774647876
H 4.319224507042254 -3.371819295774647 -1.2863129577464787
C 2.963994507042253 3.381090704225353 2.401027042253521
H 3.3337945070422537 4.369820704225353 2.6912870422535216
H 3.120994507042253 2.671350704225353 3.2183370422535216
H 3.4665445070422534 3.0664207042253535 1.4881370422535212
C 1.2973745070422538 4.282440704225354 0.8488370422535213
H 1.7592145070422538 3.7367207042253527 0.02653704225352116
H 0.23311450704225378 4.4484607042253534 0.6605570422535213
H 1.7921845070422535 5.251370704225354 0.9736770422535213
C 0.7724845070422537 4.194670704225353 3.2772470422535216
H -0.2956954929577462 4.278220704225354 3.057857042253521
H 0.9298945070422537 3.612620704225354 4.190337042253521
H 1.2046345070422537 5.193640704225353 3.3918370422535213
N 2.876084507042253 -2.324759295774647 -2.4576629577464786
N 1.4527845070422536 3.504690704225353 2.1388470422535213
C -3.593905492957746 -3.637819295774647 0.8297870422535213
H -2.8952554929577463 -1.8680692957746468 1.7595270422535212
H -5.022615492957747 -1.2402792957746467 1.1579970422535213
H -4.898275492957747 -1.7933092957746464 -0.48931295774647876
H -3.883675492957746 0.07871070422535364 -1.2758929577464788
H -3.8751654929577466 -4.038529295774646 -0.1505529577464788
H -4.4603554929577465 -3.7321892957746465 1.4932570422535212
H -2.7953554929577464 -4.271929295774647 1.2313670422535212
H -5.648775492957746 1.147700704225353 0.9733970422535213
H -6.189795492957747 0.5254307042253537 -0.5943629577464788
H -5.2178854929577465 2.002970704225354 -0.5139729577464787
C 3.6710445070422537 1.0263707042253536 -0.27764295774647874
O 2.7356545070422538 1.6631507042253526 -0.7327029577464788
O 3.650814507042253 0.3883007042253537 0.7790570422535212
O 4.756604507042254 0.8696707042253538 -0.8334829577464786
O 2.9783454806387235 0.2794871689268068 3.9200675736872905
H 3.396371401667077 0.16833965847256294 3.052964398068482
H 2.103229220784182 -0.12211705580209098 3.8112212475292693
O 6.341045806795042 -8.68455891734625 -1.8084268820377556
H 6.837905242978685 -9.384349562921683 -1.3585478872620578
H 6.427231519283204 -7.920314303593646 -1.218965994774622
O 7.366137342952311 -1.3633918195714712 1.5618576956464867
H 6.621084112207428 -1.7226030283144735 2.0666649338770853
H 6.991677440355001 -1.1864173633232065 0.6858315730437163
O -2.4182298294004534 -9.808203060995055 3.4455435788626296
H -1.471059837862359 -9.94087991388047 3.2898733609718893
H -2.681972057062552 -10.58562116063932 3.9603475026951234
O 6.8416951042643515 4.45124596123789 1.3708954425423459
H 6.88847176900027 4.5570372224070645 2.3329700288382424
H 6.936641296964543 5.353805822982768 1.0312885215898933
O 3.0139036863302477 -0.7098454205565932 -9.8142533110305
H 3.865301912001708 -1.1725341877452573 -9.816996109040575
H 2.372221906344519 -1.3990716967024248 -10.042668673483417
O 12.991369686622596 2.9764723630600827 3.841417870608508
H 13.890094264871456 2.614458307550824 3.8270195038555657
H 12.572666826372798 2.533555862251645 4.5947271247865284
O 12.122400264772939 0.9439497822904581 -6.424508427147856
H 12.157172706392641 0.6641713698598943 -5.497425758697173
H 12.324535552858034 1.8910373283537312 -6.390916021717427
O -8.749110343703059 1.1732005727295416 -7.083212845223045
H -8.901236240254605 1.189122719686389 -6.126357812454406
H -9.6393139867928 1.2237479489512855 -7.462612872749202
O -8.779414131143879 8.28068406216131 -3.6650201051076907
H -8.378987786319676 8.977685005797328 -4.206144659938859
H -8.024114938961857 7.749561051905301 -3.3710925246294727
O -6.8538194693359635 -0.03889649589433719 -9.510389042988296
H -7.302444741499645 -0.8128062706791639 -9.882902643503181
H -5.942193625264341 -0.12122834165644442 -9.828385476764067
O 3.445216509023619 2.392803280556889 -11.915447282558937
H 4.087138797259509 2.420532243423153 -11.190096169383832
H 3.9938868770643734 2.4030473549304867 -12.714082262054731
O -1.2942833537787446 -6.719744308731271 -1.8897851796814091
H -1.4246581232537396 -5.8389870159442365 -2.2721938192109
H -0.33555325934619074 -6.780162806557337 -1.7627097869029957
O 9.32706331538863 -2.530941961403368 3.5879677168524724
H 9.202467659664928 -3.4617961457881576 3.3493178333659928
H 10.276282060600629 -2.3821211705101373 3.46227726281529
O -7.462766236641116 5.075594899427496 -6.617736333578137
H -7.370717994233965 5.213695682613226 -5.663051751292846
H -6.863079561424017 4.338220220394261 -6.806459460374233
O 9.440496047197673 1.0561741090986532 5.613631296129897
H 9.315573655713473 1.0507755693745997 6.5745332728032295
H 10.296805321325877 0.6208252480053327 5.4864788660045765
O -7.233244660289462 -9.776829737460215 -3.342498455765179
H -8.168409815045665 -10.006619048221951 -3.4503426159661497
H -7.155868964654539 -8.907315290759257 -3.7631165402591074
O -0.7658391423084709 8.489920355714906 1.8725895695364718
H -1.427738450559925 8.288047358231376 2.550899200548197
H -1.2785039311162407 8.900499066157279 1.1601557963700377
O -7.885443454156928 2.5698129187902636 -2.9841203451764393
H -8.422462718583407 1.947025829943969 -3.49667659428594
H -8.307632981897108 3.4276643383990884 -3.141628722228732
O 0.3265166337164582 -3.1951622900414605 1.134107353875225
H 0.9745038861418778 -3.4027060602540544 0.4441758637690709
H 0.370077472657276 -3.955981728118732 1.7326206622106006
O 9.13446524173385 8.676994097013111 0.17595676781096006
H 9.591717433565927 9.438211699781137 -0.2119034534039268
H 8.732304958548958 9.031828656200327 0.9830016776735169
O -1.3745700619573364 1.2119332244394494 12.101822576214742
H -2.006714340201201 0.6971617150826908 12.62562717865549
H -1.931010626414123 1.8307947154888593 11.605489726784933
O -6.367663196946772 -5.912279742001301 0.5067675945673464
H -6.19041099507541 -5.013400784961602 0.19122736825225317
H -7.315493964082131 -6.034028972469839 0.34628112768643726
O -10.226043367964763 -3.3772492845775917 2.828283981991277
H -10.507663441269802 -3.1069890467627825 3.7151982366224385
H -9.882208446374836 -2.5619415504188883 2.4332994384756463
C -0.5611750043987858 12.314271784468566 6.393058486892481
O -0.6748230060689546 11.746260086675445 5.345554262468277
O -0.4475270027286169 12.882283482261688 7.440562711316685