146

C -5.3564454929577465 1.0091607042253532 -0.0734429577464788
C -4.079135492957747 0.16955070422535368 -0.19788295774647868
C -4.333545492957747 -1.2789292957746463 0.3017270422535212
C -3.1403854929577464 -2.1745492957746464 0.7330270422535212
C -2.905235492957746 0.902300704225353 0.41966704225352136
C -2.7423854929577463 1.056130704225354 1.8024770422535212
C -1.8861754929577463 1.3499307042253532 -0.4326129577464788
C -1.5304554929577463 1.5279207042253526 2.3254170422535214
H -3.5237954929577464 0.7301007042253529 2.484817042253521
C -0.6776454929577462 1.8010507042253527 0.08546704225352131
H -1.9759254929577463 1.2426607042253535 -1.5115229577464788
C -0.4680254929577463 1.8513207042253539 1.4698070422535212
H -1.3950654929577464 1.5446707042253527 3.404047042253521
H 0.1461845070422536 1.9972507042253538 -0.6030529577464789
C -1.8679654929577463 -2.0866092957746467 -0.08765295774647863
C -0.6628654929577462 -1.814079295774647 0.5787970422535212
C -1.8438954929577462 -2.213429295774647 -1.4808029577464787
C 0.5129345070422537 -1.5763292957746469 -0.13022295774647863
H -0.6401854929577462 -1.7032692957746463 1.6609470422535213
C -0.6547954929577462 -1.9962392957746466 -2.1933129577464787
H -2.7578654929577464 -2.4351492957746466 -2.026182957746479
C 0.5308845070422537 -1.645769295774647 -1.5261029577464789
H 1.4044045070422537 -1.2610992957746463 0.41551704225352126
H -0.6795654929577464 -2.0467992957746466 -3.2793129577464786
C 1.7843245070422535 -1.2521692957746469 -2.2771629577464787
H 1.4981245070422535 -0.9384492957746469 -3.290282957746479
H 2.241984507042254 -0.38631929577464685 -1.8135029577464787
C 0.9385645070422537 2.0647807042253534 1.9815670422535212
H 1.0508945070422537 1.5807407042253532 2.9609770422535213
H 1.6053245070422537 1.5496207042253536 1.3096170422535214
C 3.9676945070422533 -1.6881692957746468 -3.314052957746479
H 4.795084507042254 -2.398849295774647 -3.4044129577464783
H 3.548404507042253 -1.4816192957746468 -4.303802957746479
H 4.307714507042253 -0.7637192957746466 -2.851282957746479
C 2.344694507042253 -3.565079295774647 -3.101282957746479
H 1.6334345070422536 -4.047909295774646 -2.4251929577464786
H 1.8561845070422536 -3.293109295774647 -4.041792957746479
H 3.1808045070422537 -4.243519295774647 -3.298122957746479
C 3.5156645070422536 -2.648489295774647 -1.1110629577464786
H 3.9311845070422535 -1.748249295774647 -0.6771029577464787
H 2.767184507042254 -3.1044092957746465 -0.45972295774647876
H 4.319224507042254 -3.371819295774647 -1.2863129577464787
C 2.963994507042253 3.381090704225353 2.401027042253521
H 3.3337945070422537 4.369820704225353 2.6912870422535216
H 3.120994507042253 2.671350704225353 3.2183370422535216
H 3.4665445070422534 3.0664207042253535 1.4881370422535212
C 1.2973745070422538 4.282440704225354 0.8488370422535213
H 1.7592145070422538 3.7367207042253527 0.02653704225352116
H 0.23311450704225378 4.4484607042253534 0.6605570422535213
H 1.7921845070422535 5.251370704225354 0.9736770422535213
C 0.7724845070422537 4.194670704225353 3.2772470422535216
H -0.2956954929577462 4.278220704225354 3.057857042253521
H 0.9298945070422537 3.612620704225354 4.190337042253521
H 1.2046345070422537 5.193640704225353 3.3918370422535213
N 2.876084507042253 -2.324759295774647 -2.4576629577464786
N 1.4527845070422536 3.504690704225353 2.1388470422535213
C -3.593905492957746 -3.637819295774647 0.8297870422535213
H -2.8952554929577463 -1.8680692957746468 1.7595270422535212
H -5.022615492957747 -1.2402792957746467 1.1579970422535213
H -4.898275492957747 -1.7933092957746464 -0.48931295774647876
H -3.883675492957746 0.07871070422535364 -1.2758929577464788
H -3.8751654929577466 -4.038529295774646 -0.1505529577464788
H -4.4603554929577465 -3.7321892957746465 1.4932570422535212
H -2.7953554929577464 -4.271929295774647 1.2313670422535212
H -5.648775492957746 1.147700704225353 0.9733970422535213
H -6.189795492957747 0.5254307042253537 -0.5943629577464788
H -5.2178854929577465 2.002970704225354 -0.5139729577464787
C 3.6710445070422537 1.0263707042253536 -0.27764295774647874
O 2.7356545070422538 1.6631507042253526 -0.7327029577464788
O 3.650814507042253 0.3883007042253537 0.7790570422535212
O 4.756604507042254 0.8696707042253538 -0.8334829577464786
O -1.960295000161038 6.7825541268965726 2.4422846207691564
H -1.9926129188697348 5.884849035095684 2.805669371667013
H -1.2575998036349283 6.74035917544765 1.776401003947603
O -6.501214345715658 5.100002991680442 2.6989678046775016
H -7.41775087473522 5.408297511962696 2.7612786114184744
H -6.41903010805831 4.462163473253431 3.423790847987715
O 0.27987151364574325 -6.78752161666335 6.968947795755183
H 1.1222057626545938 -6.742544342094421 6.4920647759074965
H -0.2289855142866939 -6.042221987447275 6.616024387472099
O -3.494581838266229 -6.200464181030245 -2.9208218972978974
H -3.7410828493354025 -6.586042733357221 -3.774949398568819
H -2.592678034311245 -6.521391193916471 -2.7706975318156273
O -3.6988814619470185 -6.500165220950352 0.8122309841392177
H -4.431890683247074 -7.0346203759835 0.47161018963661805
H -3.7709292384441264 -6.590168357430612 1.7743486991957167
O 9.440049314379088 1.8937221654038314 -3.1214989044157813
H 8.658934118207494 1.8277985266904446 -3.6911307864840177
H 9.994828682947649 1.1488798837637053 -3.3978895192922645
O -2.6734662407892857 9.05033274618674 1.5021135536451793
H -2.4332989110570717 9.31279403039358 0.6007806046625097
H -2.9399594452952815 9.880698198665984 1.9245310385828454
O -1.14805318373754 3.310210268042571 10.949577827737624
H -1.1038056744171076 3.327145626791827 11.917422189421346
H -0.3147488407816935 3.7181377525095294 10.670004968312066
O 2.320305844071596 8.448868747684696 -8.074183331317775
H 2.1939169125784628 8.68383117197849 -7.142633088944338
H 3.2824633495851248 8.388149310387366 -8.171794953670247
O -8.32548409247474 -9.02324787333912 4.559536023252148
H -8.981390918112128 -9.650650746433207 4.220243777812366
H -8.799102069418598 -8.178148271470848 4.580857822840722
O 0.20875892997110945 -11.056782610698269 -3.041044768029019
H 0.9934338436779813 -11.150848643222373 -2.480327175809648
H 0.04602528994719357 -11.954195929839853 -3.3683504987027257
O 0.6985980307589721 10.550675610106884 4.438829335281687
H 0.3506822949981294 11.45202294948333 4.3647012602426445
H 0.8977726133741233 10.453509287672837 5.3821480172363705
O 7.47494740297566 -8.332303937801845 -9.791373595413276
H 7.421254049460144 -8.47292250195168 -10.74861483987817
H 6.613932843431655 -7.951456168752304 -9.562090256805279
O -9.806686941976414 -5.559986301862841 14.815240469830663
H -10.243145497479945 -6.415925817581899 14.941092889983771
H -9.57078123400674 -5.5534895253988115 13.875416958131309
O -0.3412430540187458 5.00617089170958 -1.8081891695950958
H 0.16054777407768156 5.83495991715173 -1.7913941392302881
H -0.7481424544354691 4.996692707685511 -2.687566782607911
O 6.6884349343033005 -3.5063980745615644 -3.286717840110954
H 6.789742826123145 -3.3840353598401878 -2.330824836683774
H 6.493907455157419 -4.45083006349415 -3.3824738970368093
O -10.800999552977324 1.7645761283469468 -8.313988421136692
H -11.143547791755976 1.0163223264701378 -8.825597948986346
H -11.176937877639666 1.6355474383164856 -7.430255476464437
O -13.140861724463894 1.7233252547838043 -4.44233752683599
H -13.514793067652517 2.050602191830757 -5.274222443130496
H -12.207143788844954 1.5686969002891051 -4.650238544124909
O -8.632077651805778 -6.905676321983719 -2.204398635341032
H -8.615415137689531 -6.873702629879146 -3.172730913299651
H -7.907763633541087 -7.50808502355001 -1.9776059910104085
O 6.4178541981000246 2.0553946544550517 -0.6382511987384034
H 6.778107425944009 1.2628765008111495 -1.0638095905871046
H 6.263851204440958 2.666718595770842 -1.374137100912221
O 2.309522389262071 7.40108157887937 -5.646928116508633
H 2.3807965749878655 7.649430307698109 -4.713006141050704
H 1.4709703757275165 6.918122233439237 -5.697353661118308
O 3.6700608447121525 10.705163426408024 -0.1690446411348544
H 3.8779710998151784 10.62139983318628 0.7736771328650771
H 4.261772818602731 10.068045222430227 -0.5967352751387089
O 4.322706958461611 -6.125017159859461 -5.600000160538595
H 4.347793466965863 -6.948227978940761 -5.0894495055213245
H 4.895519172869716 -6.303907088522096 -6.360819787485719
O -9.87888389371921 12.926344017148338 -0.8799648938749502
H -10.342740523267869 13.136447176268334 -1.7043804727255436
H -9.260439532859177 12.224148967780458 -1.1317795667271557
C 7.409296362880506 -8.179520337853909 -4.424898351023123
O 7.38075231115412 -7.951192131734055 -3.250219788734218
O 7.437840414606893 -8.407848543973763 -5.5995769133120294