146

C -5.3564454929577465 1.0091607042253532 -0.0734429577464788
C -4.079135492957747 0.16955070422535368 -0.19788295774647868
C -4.333545492957747 -1.2789292957746463 0.3017270422535212
C -3.1403854929577464 -2.1745492957746464 0.7330270422535212
C -2.905235492957746 0.902300704225353 0.41966704225352136
C -2.7423854929577463 1.056130704225354 1.8024770422535212
C -1.8861754929577463 1.3499307042253532 -0.4326129577464788
C -1.5304554929577463 1.5279207042253526 2.3254170422535214
H -3.5237954929577464 0.7301007042253529 2.484817042253521
C -0.6776454929577462 1.8010507042253527 0.08546704225352131
H -1.9759254929577463 1.2426607042253535 -1.5115229577464788
C -0.4680254929577463 1.8513207042253539 1.4698070422535212
H -1.3950654929577464 1.5446707042253527 3.404047042253521
H 0.1461845070422536 1.9972507042253538 -0.6030529577464789
C -1.8679654929577463 -2.0866092957746467 -0.08765295774647863
C -0.6628654929577462 -1.814079295774647 0.5787970422535212
C -1.8438954929577462 -2.213429295774647 -1.4808029577464787
C 0.5129345070422537 -1.5763292957746469 -0.13022295774647863
H -0.6401854929577462 -1.7032692957746463 1.6609470422535213
C -0.6547954929577462 -1.9962392957746466 -2.1933129577464787
H -2.7578654929577464 -2.4351492957746466 -2.026182957746479
C 0.5308845070422537 -1.645769295774647 -1.5261029577464789
H 1.4044045070422537 -1.2610992957746463 0.41551704225352126
H -0.6795654929577464 -2.0467992957746466 -3.2793129577464786
C 1.7843245070422535 -1.2521692957746469 -2.2771629577464787
H 1.4981245070422535 -0.9384492957746469 -3.290282957746479
H 2.241984507042254 -0.38631929577464685 -1.8135029577464787
C 0.9385645070422537 2.0647807042253534 1.9815670422535212
H 1.0508945070422537 1.5807407042253532 2.9609770422535213
H 1.6053245070422537 1.5496207042253536 1.3096170422535214
C 3.9676945070422533 -1.6881692957746468 -3.314052957746479
H 4.795084507042254 -2.398849295774647 -3.4044129577464783
H 3.548404507042253 -1.4816192957746468 -4.303802957746479
H 4.307714507042253 -0.7637192957746466 -2.851282957746479
C 2.344694507042253 -3.565079295774647 -3.101282957746479
H 1.6334345070422536 -4.047909295774646 -2.4251929577464786
H 1.8561845070422536 -3.293109295774647 -4.041792957746479
H 3.1808045070422537 -4.243519295774647 -3.298122957746479
C 3.5156645070422536 -2.648489295774647 -1.1110629577464786
H 3.9311845070422535 -1.748249295774647 -0.6771029577464787
H 2.767184507042254 -3.1044092957746465 -0.45972295774647876
H 4.319224507042254 -3.371819295774647 -1.2863129577464787
C 2.963994507042253 3.381090704225353 2.401027042253521
H 3.3337945070422537 4.369820704225353 2.6912870422535216
H 3.120994507042253 2.671350704225353 3.2183370422535216
H 3.4665445070422534 3.0664207042253535 1.4881370422535212
C 1.2973745070422538 4.282440704225354 0.8488370422535213
H 1.7592145070422538 3.7367207042253527 0.02653704225352116
H 0.23311450704225378 4.4484607042253534 0.6605570422535213
H 1.7921845070422535 5.251370704225354 0.9736770422535213
C 0.7724845070422537 4.194670704225353 3.2772470422535216
H -0.2956954929577462 4.278220704225354 3.057857042253521
H 0.9298945070422537 3.612620704225354 4.190337042253521
H 1.2046345070422537 5.193640704225353 3.3918370422535213
N 2.876084507042253 -2.324759295774647 -2.4576629577464786
N 1.4527845070422536 3.504690704225353 2.1388470422535213
C -3.593905492957746 -3.637819295774647 0.8297870422535213
H -2.8952554929577463 -1.8680692957746468 1.7595270422535212
H -5.022615492957747 -1.2402792957746467 1.1579970422535213
H -4.898275492957747 -1.7933092957746464 -0.48931295774647876
H -3.883675492957746 0.07871070422535364 -1.2758929577464788
H -3.8751654929577466 -4.038529295774646 -0.1505529577464788
H -4.4603554929577465 -3.7321892957746465 1.4932570422535212
H -2.7953554929577464 -4.271929295774647 1.2313670422535212
H -5.648775492957746 1.147700704225353 0.9733970422535213
H -6.189795492957747 0.5254307042253537 -0.5943629577464788
H -5.2178854929577465 2.002970704225354 -0.5139729577464787
C 3.6710445070422537 1.0263707042253536 -0.27764295774647874
O 2.7356545070422538 1.6631507042253526 -0.7327029577464788
O 3.650814507042253 0.3883007042253537 0.7790570422535212
O 4.756604507042254 0.8696707042253538 -0.8334829577464786
O -0.8389446351662322 8.5508444728647 6.5714197493037805
H -1.4775760733112002 9.087875821672602 7.064080457611697
H -1.3770877027695998 7.844671491851268 6.183239760153082
O 0.5760840659246362 1.0920639971359352 -4.137113088099512
H 1.2197276146489853 1.6631657493275833 -4.5826836523529835
H -0.12685651011558363 1.7004324193524896 -3.8637555315806122
O -0.7565886412561433 9.771588980937704 -5.415487375054464
H -0.5836950937166823 9.97402067112876 -4.483770363872627
H -1.616991546704801 9.326056857867218 -5.402452348862936
O 3.0183938566074513 3.3005915767489986 8.67628739644953
H 2.2874622209149376 2.9270847858807247 8.161312661128317
H 3.641420085505419 2.563957989986827 8.766682204149284
O -0.5116888743093941 8.622413242848076 -2.940671813976757
H 0.39537488961505973 8.3176811192536 -3.093449488801333
H -0.4086580054565303 9.558078436030524 -2.71072131793407
O 4.61616583872378 3.2620502538642855 4.960101063495145
H 4.110388906696402 2.466524361881472 4.735834242244378
H 4.927518199886855 3.590720529832058 4.103364522198203
O 3.4367564560139385 7.967854574846991 4.86183293030296
H 3.949345750601748 7.805006822364495 5.667872744136849
H 3.0542238694304022 7.103355364736989 4.649061033143367
O 8.600855163992833 3.1325804004548714 -5.526921302884291
H 8.651113016462311 3.1685232552367055 -4.559889960912746
H 8.497021489160746 4.059243969506422 -5.7905026794333665
O -5.9540714025054395 0.7196817353857985 -2.730308143409953
H -6.522150224212924 0.035502615005546634 -2.3454019984042613
H -5.4811968223094 0.25936734511620174 -3.439858872967148
O 1.579426510548492 -12.94601844858273 1.3271024161363052
H 1.3908584566028903 -13.718554826348512 0.773390405286173
H 2.4777518326632872 -13.105615680145569 1.653449292365918
O -1.3363071909582223 1.2204221137665114 9.468573942266202
H -0.675370211382254 1.4227746819814033 8.789469308159031
H -2.1802058270884164 1.4429592220974579 9.047534429092794
O 8.215978154402825 9.495236845523369 0.779853027336566
H 7.624227270897741 9.898432539900572 0.12698896736187226
H 8.122901979488843 8.54342573751249 0.6237941133634046
O -3.312697695064299 4.367474581258818 8.848172518285745
H -3.209318006077524 4.143831515500254 9.785329802813326
H -4.253814174862262 4.5811501004766235 8.760968801394263
O -3.4047687741427115 9.418277547376107 -9.357587019757576
H -3.0861683713731014 9.919553084448163 -10.123213545021798
H -4.176920068550591 8.940286507786698 -9.695623835676304
O 8.300333882503597 -9.791155436361263 -0.2997146495955125
H 7.7853717649102006 -9.687496274863097 -1.1139849687041126
H 8.960226857719977 -9.08324738228302 -0.3483910559052441
O 2.3940713770638204 13.710899496494267 4.751692411521066
H 2.4236727549241666 13.4925888653249 3.8080655871634708
H 2.501518693497995 12.855145668679285 5.19339639007582
O -2.3518464639881587 14.478592952242336 -2.319508564530619
H -2.1975453068895834 15.285422828563604 -1.805520178967826
H -2.202957222467866 13.763431632263991 -1.6828467826822484
O -3.917337342225376 1.3487271760043682 -4.311961980778987
H -3.859996983513895 2.1847079637801348 -3.825324988111302
H -2.9955363920399565 1.1367124085305786 -4.522425020076371
O 0.7143865939836667 -6.0947636882796745 6.9999235490722675
H 1.5464971840197128 -6.505554460425052 6.720978636284692
H 0.8960479296472774 -5.786061573461113 7.900292422218969
O 2.9404896483040925 8.21696206929968 0.08308979550866025
H 2.6497150303724926 8.319421773853424 1.0017407016800373
H 2.313655886257215 8.756029490842371 -0.4223285402187562
O -4.428566197071819 2.2910921570533973 -12.154460191479567
H -4.303319509199254 2.4235694887219608 -13.106158873138279
H -3.62253432425919 1.832193428704757 -11.873949012682418
O -4.463665348912279 -5.557573294916848 -12.232670712373048
H -4.3449831018785785 -5.4948450259699015 -13.19233057160128
H -5.423431114670706 -5.501875448881993 -12.111388524376554
O -4.530610317177034 -15.526840385048239 -4.159890678161528
H -4.3352026474944445 -16.413744923885254 -3.821980130058149
H -3.7538818592706193 -15.303687130118512 -4.694547083521633
O 0.8522208102042064 -0.9981317790182881 3.9372777205678537
H 1.1351723813274401 -1.4930193976572939 4.7208541432712865
H 1.6444751493611782 -0.5074997311029424 3.6716177876736693
C 4.610960910641199 -9.133296943927304 0.20762588613843658
O 3.6770788948266206 -9.164633079884483 0.955757348129826
O 5.544842926455778 -9.101960807970126 -0.5405055758529529