146

C -5.3564454929577465 1.0091607042253532 -0.0734429577464788
C -4.079135492957747 0.16955070422535368 -0.19788295774647868
C -4.333545492957747 -1.2789292957746463 0.3017270422535212
C -3.1403854929577464 -2.1745492957746464 0.7330270422535212
C -2.905235492957746 0.902300704225353 0.41966704225352136
C -2.7423854929577463 1.056130704225354 1.8024770422535212
C -1.8861754929577463 1.3499307042253532 -0.4326129577464788
C -1.5304554929577463 1.5279207042253526 2.3254170422535214
H -3.5237954929577464 0.7301007042253529 2.484817042253521
C -0.6776454929577462 1.8010507042253527 0.08546704225352131
H -1.9759254929577463 1.2426607042253535 -1.5115229577464788
C -0.4680254929577463 1.8513207042253539 1.4698070422535212
H -1.3950654929577464 1.5446707042253527 3.404047042253521
H 0.1461845070422536 1.9972507042253538 -0.6030529577464789
C -1.8679654929577463 -2.0866092957746467 -0.08765295774647863
C -0.6628654929577462 -1.814079295774647 0.5787970422535212
C -1.8438954929577462 -2.213429295774647 -1.4808029577464787
C 0.5129345070422537 -1.5763292957746469 -0.13022295774647863
H -0.6401854929577462 -1.7032692957746463 1.6609470422535213
C -0.6547954929577462 -1.9962392957746466 -2.1933129577464787
H -2.7578654929577464 -2.4351492957746466 -2.026182957746479
C 0.5308845070422537 -1.645769295774647 -1.5261029577464789
H 1.4044045070422537 -1.2610992957746463 0.41551704225352126
H -0.6795654929577464 -2.0467992957746466 -3.2793129577464786
C 1.7843245070422535 -1.2521692957746469 -2.2771629577464787
H 1.4981245070422535 -0.9384492957746469 -3.290282957746479
H 2.241984507042254 -0.38631929577464685 -1.8135029577464787
C 0.9385645070422537 2.0647807042253534 1.9815670422535212
H 1.0508945070422537 1.5807407042253532 2.9609770422535213
H 1.6053245070422537 1.5496207042253536 1.3096170422535214
C 3.9676945070422533 -1.6881692957746468 -3.314052957746479
H 4.795084507042254 -2.398849295774647 -3.4044129577464783
H 3.548404507042253 -1.4816192957746468 -4.303802957746479
H 4.307714507042253 -0.7637192957746466 -2.851282957746479
C 2.344694507042253 -3.565079295774647 -3.101282957746479
H 1.6334345070422536 -4.047909295774646 -2.4251929577464786
H 1.8561845070422536 -3.293109295774647 -4.041792957746479
H 3.1808045070422537 -4.243519295774647 -3.298122957746479
C 3.5156645070422536 -2.648489295774647 -1.1110629577464786
H 3.9311845070422535 -1.748249295774647 -0.6771029577464787
H 2.767184507042254 -3.1044092957746465 -0.45972295774647876
H 4.319224507042254 -3.371819295774647 -1.2863129577464787
C 2.963994507042253 3.381090704225353 2.401027042253521
H 3.3337945070422537 4.369820704225353 2.6912870422535216
H 3.120994507042253 2.671350704225353 3.2183370422535216
H 3.4665445070422534 3.0664207042253535 1.4881370422535212
C 1.2973745070422538 4.282440704225354 0.8488370422535213
H 1.7592145070422538 3.7367207042253527 0.02653704225352116
H 0.23311450704225378 4.4484607042253534 0.6605570422535213
H 1.7921845070422535 5.251370704225354 0.9736770422535213
C 0.7724845070422537 4.194670704225353 3.2772470422535216
H -0.2956954929577462 4.278220704225354 3.057857042253521
H 0.9298945070422537 3.612620704225354 4.190337042253521
H 1.2046345070422537 5.193640704225353 3.3918370422535213
N 2.876084507042253 -2.324759295774647 -2.4576629577464786
N 1.4527845070422536 3.504690704225353 2.1388470422535213
C -3.593905492957746 -3.637819295774647 0.8297870422535213
H -2.8952554929577463 -1.8680692957746468 1.7595270422535212
H -5.022615492957747 -1.2402792957746467 1.1579970422535213
H -4.898275492957747 -1.7933092957746464 -0.48931295774647876
H -3.883675492957746 0.07871070422535364 -1.2758929577464788
H -3.8751654929577466 -4.038529295774646 -0.1505529577464788
H -4.4603554929577465 -3.7321892957746465 1.4932570422535212
H -2.7953554929577464 -4.271929295774647 1.2313670422535212
H -5.648775492957746 1.147700704225353 0.9733970422535213
H -6.189795492957747 0.5254307042253537 -0.5943629577464788
H -5.2178854929577465 2.002970704225354 -0.5139729577464787
C 3.6710445070422537 1.0263707042253536 -0.27764295774647874
O 2.7356545070422538 1.6631507042253526 -0.7327029577464788
O 3.650814507042253 0.3883007042253537 0.7790570422535212
O 4.756604507042254 0.8696707042253538 -0.8334829577464786
O -4.268432143477751 4.977549093376135 2.524885049837711
H -4.383291580929091 5.897385033938885 2.8071553263058564
H -4.129193191794769 4.494209178878787 3.3531102521154006
O 3.05779120196361 2.8664795011348847 -8.458337431112321
H 3.9387421536256437 2.657282161065421 -8.803488485831293
H 2.991189921627668 3.828418608483871 -8.554250764441163
O 7.175118916239345 -2.7895977897899145 -2.7894035995811817
H 7.21083468492284 -2.875647725891072 -3.753917544148255
H 8.099710558857613 -2.875305712249856 -2.512372210153816
O -10.475461388330103 -2.8826861308538794 6.651101599374531
H -10.333785285520845 -2.7912912776686643 5.696878239985319
H -10.135815239638728 -2.052936649815043 7.018685925339195
O -3.3562569504559447 6.175653385602943 -1.7167054246948121
H -3.2369188284683594 6.234698548619978 -0.7568932356365728
H -3.9637682573511572 6.902070292563753 -1.9221572038936339
O 11.195859044217624 5.47779082048078 3.2484447088667165
H 11.019268970141763 5.054140375441578 2.395037652969024
H 11.127425357050742 4.753139478226585 3.8881002465820864
O 6.105516512216307 -5.2939074550228895 -12.73222002556752
H 5.772012621759644 -5.603974443358033 -13.587556786554115
H 5.930848811343402 -6.033397404712621 -12.130881724043615
O 1.031165297081996 8.173441879782324 -5.605903240893165
H 1.3205689062656623 8.160268688512511 -6.5305866326133994
H 1.1204920265344431 7.25204040242499 -5.3195433323356855
O -0.27191796861702194 -3.163092687834421 1.5467026031226885
H 0.6205254468057545 -3.4626173624087473 1.7764787474233417
H -0.8537343339055905 -3.7894870094161046 2.002862460269962
O -5.03100040713416 0.8485510384347692 10.807250139750014
H -4.177210948580511 1.295190439811659 10.909837480588745
H -4.9216757330663174 0.01937001111327019 11.296605719947097
O 5.984271942133262 0.9323695445646643 -6.417737731447526
H 6.219444862238693 1.0406334689744923 -7.351514994621388
H 5.0153378272424 0.943709500375739 -6.417562509115031
O -6.29267785023394 -6.713200224511522 -6.230209370173441
H -6.3184946167664116 -6.440302609330294 -5.300786031164672
H -7.147601544476997 -7.147220147059328 -6.370545139503287
O 5.191080867406769 5.880018230456308 5.114179329656633
H 5.56902866766222 6.037219079022295 4.235879431904048
H 5.420602011884437 6.677822671165331 5.613969348487165
O 7.375120000841531 -5.581005084264505 -1.679929186693525
H 7.025354966652596 -4.916951533698264 -2.2928440745361867
H 6.6601629236073405 -5.7066800876325 -1.038053719378255
O 3.9252690733833586 -8.347382434245553 -8.419730121286452
H 4.399470854516492 -9.098800079324388 -8.806345628391826
H 4.393291369685459 -8.17795430587953 -7.588339007680771
O 12.729463710420308 -0.03956396008669927 -2.532987249971036
H 12.91411675186546 -0.3068653995995607 -1.6200685506229462
H 12.908379500096054 0.9127582506595155 -2.5387744275339736
O 5.713034776467252 0.8377961610691063 2.365469408319877
H 5.613749755079057 0.7996906225910514 3.3286193495882364
H 4.978971311983766 1.4005190045749991 2.076582274983787
O 7.078816107459599 -12.26968039797563 -7.533060860753063
H 7.175087656124463 -12.232311933719135 -8.496545548590282
H 7.703562107884915 -11.603425129728542 -7.209396996867139
O -4.020977739411614 1.8615350911027762 -5.4135146803264815
H -4.479335593303039 2.711932720881801 -5.4890084280296145
H -3.1840803842043353 2.004451560161905 -5.880568899897114
O -10.430887156379155 7.890972261675806 6.129115714431152
H -9.520630264735864 8.22316144791346 6.136193331449456
H -10.510136753064758 7.407564576184677 6.965176989298778
O 4.938106119914544 4.571141999159823 10.34201882322757
H 5.299977034628373 5.180013617593226 9.680738133769252
H 3.9796500042726515 4.698317854835941 10.277597394947056
O -11.67345018948489 1.072762869517553 0.28004341849005876
H -11.704167683377356 0.8793782967093602 1.2290566952511166
H -10.863440169837844 0.6349793618003403 -0.021935575385679362
O -12.381394508508922 -1.6887960954527688 2.8922296243239716
H -13.311988262021359 -1.5110288701155041 2.688854511737582
H -12.203111479363807 -2.5339052067804277 2.45294873950218
O 6.5734619618208034 3.9838247845404187 -8.17770189675476
H 7.033731046981369 4.802474839616815 -7.9390980127359345
H 5.840474689473431 3.9347170253354706 -7.545815806654159
C -7.648437798310299 -2.1068745370038315 2.0910921829677105
O -7.867439796849509 -2.4804681854946296 0.9751691714014258
O -7.42943579977109 -1.7332808885130337 3.2070151945339953