146

C -5.3564454929577465 1.0091607042253532 -0.0734429577464788
C -4.079135492957747 0.16955070422535368 -0.19788295774647868
C -4.333545492957747 -1.2789292957746463 0.3017270422535212
C -3.1403854929577464 -2.1745492957746464 0.7330270422535212
C -2.905235492957746 0.902300704225353 0.41966704225352136
C -2.7423854929577463 1.056130704225354 1.8024770422535212
C -1.8861754929577463 1.3499307042253532 -0.4326129577464788
C -1.5304554929577463 1.5279207042253526 2.3254170422535214
H -3.5237954929577464 0.7301007042253529 2.484817042253521
C -0.6776454929577462 1.8010507042253527 0.08546704225352131
H -1.9759254929577463 1.2426607042253535 -1.5115229577464788
C -0.4680254929577463 1.8513207042253539 1.4698070422535212
H -1.3950654929577464 1.5446707042253527 3.404047042253521
H 0.1461845070422536 1.9972507042253538 -0.6030529577464789
C -1.8679654929577463 -2.0866092957746467 -0.08765295774647863
C -0.6628654929577462 -1.814079295774647 0.5787970422535212
C -1.8438954929577462 -2.213429295774647 -1.4808029577464787
C 0.5129345070422537 -1.5763292957746469 -0.13022295774647863
H -0.6401854929577462 -1.7032692957746463 1.6609470422535213
C -0.6547954929577462 -1.9962392957746466 -2.1933129577464787
H -2.7578654929577464 -2.4351492957746466 -2.026182957746479
C 0.5308845070422537 -1.645769295774647 -1.5261029577464789
H 1.4044045070422537 -1.2610992957746463 0.41551704225352126
H -0.6795654929577464 -2.0467992957746466 -3.2793129577464786
C 1.7843245070422535 -1.2521692957746469 -2.2771629577464787
H 1.4981245070422535 -0.9384492957746469 -3.290282957746479
H 2.241984507042254 -0.38631929577464685 -1.8135029577464787
C 0.9385645070422537 2.0647807042253534 1.9815670422535212
H 1.0508945070422537 1.5807407042253532 2.9609770422535213
H 1.6053245070422537 1.5496207042253536 1.3096170422535214
C 3.9676945070422533 -1.6881692957746468 -3.314052957746479
H 4.795084507042254 -2.398849295774647 -3.4044129577464783
H 3.548404507042253 -1.4816192957746468 -4.303802957746479
H 4.307714507042253 -0.7637192957746466 -2.851282957746479
C 2.344694507042253 -3.565079295774647 -3.101282957746479
H 1.6334345070422536 -4.047909295774646 -2.4251929577464786
H 1.8561845070422536 -3.293109295774647 -4.041792957746479
H 3.1808045070422537 -4.243519295774647 -3.298122957746479
C 3.5156645070422536 -2.648489295774647 -1.1110629577464786
H 3.9311845070422535 -1.748249295774647 -0.6771029577464787
H 2.767184507042254 -3.1044092957746465 -0.45972295774647876
H 4.319224507042254 -3.371819295774647 -1.2863129577464787
C 2.963994507042253 3.381090704225353 2.401027042253521
H 3.3337945070422537 4.369820704225353 2.6912870422535216
H 3.120994507042253 2.671350704225353 3.2183370422535216
H 3.4665445070422534 3.0664207042253535 1.4881370422535212
C 1.2973745070422538 4.282440704225354 0.8488370422535213
H 1.7592145070422538 3.7367207042253527 0.02653704225352116
H 0.23311450704225378 4.4484607042253534 0.6605570422535213
H 1.7921845070422535 5.251370704225354 0.9736770422535213
C 0.7724845070422537 4.194670704225353 3.2772470422535216
H -0.2956954929577462 4.278220704225354 3.057857042253521
H 0.9298945070422537 3.612620704225354 4.190337042253521
H 1.2046345070422537 5.193640704225353 3.3918370422535213
N 2.876084507042253 -2.324759295774647 -2.4576629577464786
N 1.4527845070422536 3.504690704225353 2.1388470422535213
C -3.593905492957746 -3.637819295774647 0.8297870422535213
H -2.8952554929577463 -1.8680692957746468 1.7595270422535212
H -5.022615492957747 -1.2402792957746467 1.1579970422535213
H -4.898275492957747 -1.7933092957746464 -0.48931295774647876
H -3.883675492957746 0.07871070422535364 -1.2758929577464788
H -3.8751654929577466 -4.038529295774646 -0.1505529577464788
H -4.4603554929577465 -3.7321892957746465 1.4932570422535212
H -2.7953554929577464 -4.271929295774647 1.2313670422535212
H -5.648775492957746 1.147700704225353 0.9733970422535213
H -6.189795492957747 0.5254307042253537 -0.5943629577464788
H -5.2178854929577465 2.002970704225354 -0.5139729577464787
C 3.6710445070422537 1.0263707042253536 -0.27764295774647874
O 2.7356545070422538 1.6631507042253526 -0.7327029577464788
O 3.650814507042253 0.3883007042253537 0.7790570422535212
O 4.756604507042254 0.8696707042253538 -0.8334829577464786
O -3.819863281186429 11.355263046729267 1.6817036368071936
H -4.297918816595556 11.088076519068082 0.8823028478401984
H -3.3181549259843868 10.564243817980959 1.9297746959231112
O 3.6410058255956086 3.1618746962314264 5.241913832860679
H 4.34367627816248 3.5379750098592506 5.7930673015774445
H 4.103435417162672 2.8638247633658223 4.444237799209218
O -4.16581738561237 -4.554751460384778 7.680697494407558
H -4.98518909736054 -4.938451920993452 7.3337518049753845
H -4.093169068490533 -3.7041963589751505 7.222177935625793
O 7.381604047116853 -0.08401994557548931 -3.93356097344651
H 6.864795457802188 0.013089350489979612 -3.119653101799935
H 6.775692595548136 0.20669467675667086 -4.631642820739618
O -3.614493544999442 -10.280415871763065 -2.413808752023636
H -3.6650798972564043 -10.307136160816318 -3.3811217334408434
H -4.453222186595122 -9.87528183850247 -2.1466709127700594
O 4.700395828734984 -10.140078472661484 0.08873144484218598
H 4.949973703303119 -11.07584972739187 0.056944651257817114
H 5.297296021604026 -9.71692967111234 -0.5465772956930147
O -1.5365492024999798 -6.611701095473516 -6.910791718879916
H -2.1399789554544135 -6.092781784906572 -7.46356892469622
H -1.7425346945394806 -7.530785216233605 -7.138423659380145
O -12.213462012237462 1.48281287893231 2.218813732320186
H -11.727728361438661 0.7330871056720101 2.5942354182826755
H -11.662166848255513 2.2501560364794955 2.433802255352532
O 5.1782722517510855 -7.4635917819574775 -6.988929199041499
H 4.329040865155337 -7.927541959712848 -7.039165057563328
H 5.0604101557709615 -6.838114339389339 -6.25827987175132
O 5.948606642658684 -4.1492733476935175 -9.134798210664421
H 6.6652476450800995 -4.569593093662788 -9.633520920892014
H 5.485420636622271 -4.892193791016897 -8.719479197128768
O 0.11365920661413909 -3.528419857728058 -5.382942179014126
H 0.8566093919211593 -3.01351260360003 -5.732030847834242
H 0.3638485347168021 -4.448164818629138 -5.557402636713307
O -1.4394008395333278 4.638994892760967 9.718565347839851
H -2.1691685909498064 4.187020357869572 10.168148939291145
H -1.2310014409346635 5.384330133307257 10.301666551888957
O 5.986655958992866 4.432265258202563 3.111444286202797
H 6.464302765187805 5.254863998654894 2.9266411540918633
H 5.806052415696239 4.475081038750289 4.062502177913282
O -3.389135328263232 10.07960447994988 5.092872134961708
H -2.5929309165037946 10.616723626313208 5.221436959874042
H -4.10796661733184 10.64718516771724 5.409251156120656
O 2.9208802558658276 12.348865947054733 -7.290798291551523
H 3.033391956913735 12.500913908736603 -8.241161322911484
H 2.983681331969511 11.386297142116732 -7.198715367507792
O -7.430175565784692 -1.552565095319144 7.901534823032217
H -7.431433057184949 -1.506823669168365 8.86945708104113
H -7.369840612892821 -0.6262665158851717 7.6235193927083955
O 5.854132185575013 3.725305891962618 9.466867205132639
H 5.911638808839349 3.6964406583961766 10.433731799309037
H 4.902959623269114 3.6798831406543426 9.287508696329695
O 7.68160360577669 -1.5620174632088677 6.219958624926647
H 8.348880402825468 -1.0597478330539207 6.711318219973224
H 7.133136077397445 -0.8792432517553883 5.805272369080567
O -1.1162046954350333 3.234947934674434 -7.532105435081934
H -0.7938766890534498 2.944720026133136 -6.665595323019866
H -1.5377280884265987 4.088493351798883 -7.3511629183349605
O 5.4873941295795206 6.694090716892526 -3.6700886174392164
H 5.437496240665167 6.657524772239832 -4.63711524027519
H 6.413668702588516 6.486458515760555 -3.4754961490595404
O -8.115858894303788 -7.876134380939041 -1.6018106806858885
H -8.30218008350598 -8.716762146201546 -2.046329219808891
H -8.80798383788107 -7.2809871633995105 -1.9269641771042718
O 7.58654806945602 -0.8190195384951995 8.907364695686065
H 8.185079837160865 -0.28358663344429225 9.449618035128857
H 8.066967900085363 -1.6508809965380413 8.780222077886561
O -8.564723575131495 4.812488334656425 2.82297402902278
H -7.834961933511032 4.614637076102736 3.4290022320035716
H -9.261287682437096 5.158994934372506 3.4006361838042323
O -4.794177800423 5.3926295953183025 -9.76258045588285
H -4.476600390680213 5.84411851585465 -8.966169945935881
H -5.7227659888556035 5.197261661557327 -9.566322230421031
C -7.427887980974397 9.602211764201215 0.1674705977689217
O -7.79056345886966 8.483663797881341 -0.056438316915418785
O -7.065212503079134 10.720759730521088 0.3913795124532613