146

C -5.3564454929577465 1.0091607042253532 -0.0734429577464788
C -4.079135492957747 0.16955070422535368 -0.19788295774647868
C -4.333545492957747 -1.2789292957746463 0.3017270422535212
C -3.1403854929577464 -2.1745492957746464 0.7330270422535212
C -2.905235492957746 0.902300704225353 0.41966704225352136
C -2.7423854929577463 1.056130704225354 1.8024770422535212
C -1.8861754929577463 1.3499307042253532 -0.4326129577464788
C -1.5304554929577463 1.5279207042253526 2.3254170422535214
H -3.5237954929577464 0.7301007042253529 2.484817042253521
C -0.6776454929577462 1.8010507042253527 0.08546704225352131
H -1.9759254929577463 1.2426607042253535 -1.5115229577464788
C -0.4680254929577463 1.8513207042253539 1.4698070422535212
H -1.3950654929577464 1.5446707042253527 3.404047042253521
H 0.1461845070422536 1.9972507042253538 -0.6030529577464789
C -1.8679654929577463 -2.0866092957746467 -0.08765295774647863
C -0.6628654929577462 -1.814079295774647 0.5787970422535212
C -1.8438954929577462 -2.213429295774647 -1.4808029577464787
C 0.5129345070422537 -1.5763292957746469 -0.13022295774647863
H -0.6401854929577462 -1.7032692957746463 1.6609470422535213
C -0.6547954929577462 -1.9962392957746466 -2.1933129577464787
H -2.7578654929577464 -2.4351492957746466 -2.026182957746479
C 0.5308845070422537 -1.645769295774647 -1.5261029577464789
H 1.4044045070422537 -1.2610992957746463 0.41551704225352126
H -0.6795654929577464 -2.0467992957746466 -3.2793129577464786
C 1.7843245070422535 -1.2521692957746469 -2.2771629577464787
H 1.4981245070422535 -0.9384492957746469 -3.290282957746479
H 2.241984507042254 -0.38631929577464685 -1.8135029577464787
C 0.9385645070422537 2.0647807042253534 1.9815670422535212
H 1.0508945070422537 1.5807407042253532 2.9609770422535213
H 1.6053245070422537 1.5496207042253536 1.3096170422535214
C 3.9676945070422533 -1.6881692957746468 -3.314052957746479
H 4.795084507042254 -2.398849295774647 -3.4044129577464783
H 3.548404507042253 -1.4816192957746468 -4.303802957746479
H 4.307714507042253 -0.7637192957746466 -2.851282957746479
C 2.344694507042253 -3.565079295774647 -3.101282957746479
H 1.6334345070422536 -4.047909295774646 -2.4251929577464786
H 1.8561845070422536 -3.293109295774647 -4.041792957746479
H 3.1808045070422537 -4.243519295774647 -3.298122957746479
C 3.5156645070422536 -2.648489295774647 -1.1110629577464786
H 3.9311845070422535 -1.748249295774647 -0.6771029577464787
H 2.767184507042254 -3.1044092957746465 -0.45972295774647876
H 4.319224507042254 -3.371819295774647 -1.2863129577464787
C 2.963994507042253 3.381090704225353 2.401027042253521
H 3.3337945070422537 4.369820704225353 2.6912870422535216
H 3.120994507042253 2.671350704225353 3.2183370422535216
H 3.4665445070422534 3.0664207042253535 1.4881370422535212
C 1.2973745070422538 4.282440704225354 0.8488370422535213
H 1.7592145070422538 3.7367207042253527 0.02653704225352116
H 0.23311450704225378 4.4484607042253534 0.6605570422535213
H 1.7921845070422535 5.251370704225354 0.9736770422535213
C 0.7724845070422537 4.194670704225353 3.2772470422535216
H -0.2956954929577462 4.278220704225354 3.057857042253521
H 0.9298945070422537 3.612620704225354 4.190337042253521
H 1.2046345070422537 5.193640704225353 3.3918370422535213
N 2.876084507042253 -2.324759295774647 -2.4576629577464786
N 1.4527845070422536 3.504690704225353 2.1388470422535213
C -3.593905492957746 -3.637819295774647 0.8297870422535213
H -2.8952554929577463 -1.8680692957746468 1.7595270422535212
H -5.022615492957747 -1.2402792957746467 1.1579970422535213
H -4.898275492957747 -1.7933092957746464 -0.48931295774647876
H -3.883675492957746 0.07871070422535364 -1.2758929577464788
H -3.8751654929577466 -4.038529295774646 -0.1505529577464788
H -4.4603554929577465 -3.7321892957746465 1.4932570422535212
H -2.7953554929577464 -4.271929295774647 1.2313670422535212
H -5.648775492957746 1.147700704225353 0.9733970422535213
H -6.189795492957747 0.5254307042253537 -0.5943629577464788
H -5.2178854929577465 2.002970704225354 -0.5139729577464787
C 3.6710445070422537 1.0263707042253536 -0.27764295774647874
O 2.7356545070422538 1.6631507042253526 -0.7327029577464788
O 3.650814507042253 0.3883007042253537 0.7790570422535212
O 4.756604507042254 0.8696707042253538 -0.8334829577464786
O -5.5577283862314495 5.398513425378674 -6.57184444454958
H -5.723291656574822 5.3010542526433255 -5.622077173023048
H -6.120484844389317 4.722346322489167 -6.97812656582939
O -2.6133638888401443 -9.946130029533416 -1.1754321212650545
H -3.167412186976633 -10.56226514610154 -0.6730623785817926
H -2.8334704352094184 -10.134105930424628 -2.1001916106619065
O 2.6134384984756216 6.101063505916793 6.039001160425429
H 3.068321480337164 5.2832065509752075 6.2903153680748005
H 2.744273022708736 6.156608531575138 5.080481978722053
O -9.139204718188568 2.233637253254106 0.5129016854279591
H -9.21023081809412 2.251907127100064 1.4791257079723483
H -9.535227313406162 3.072620200879362 0.23319530013946066
O 0.7268080103811401 -4.128840910026197 11.536328988535942
H -0.018488635015176058 -4.641632880765361 11.189133565169731
H 0.9508584867651222 -4.57462085549361 12.367017599599789
O -5.762493284658936 -2.6861027078233697 -5.730397090878439
H -5.53525719303698 -3.1048697319151053 -4.886616731366717
H -6.233790502132846 -1.8798002164887073 -5.472100421196336
O -11.819077556959915 -4.83272021676842 -3.8655481897222375
H -11.955051955709592 -4.235892180898477 -3.1143660444443495
H -11.505208334131156 -4.250224329468689 -4.573465272818677
O -2.9538846764063833 6.601054527307627 -1.7034394231896837
H -3.6265597711273165 7.292440764557249 -1.7954211865126142
H -2.6915467288083503 6.652166545395906 -0.7720274267257157
O -3.9973091974757633 4.0836844683883395 -8.143425498774773
H -4.099680959766317 4.147264843930852 -7.181944913931066
H -3.216481648745888 3.521625322984826 -8.259010102043401
O 2.3965767506010973 -8.392303213074083 -6.271896288787331
H 2.4763833387948955 -8.359812446546524 -5.3067317352156
H 2.8724844219087933 -7.60367147441287 -6.572784662551882
O 0.06554872088609409 10.016734105924751 -7.3708606182650955
H 0.35520021946415037 10.258510806315037 -8.263392630811353
H 0.046565691919744356 10.860289990273433 -6.894399645160292
O -11.408566943919514 2.222125081319117 3.275401864116735
H -10.678034089864257 2.2075537475367923 3.9118582901803647
H -11.003702860467836 2.5590420964841387 2.462054494831553
O -2.377433517675608 -1.8452081410858787 4.859160188560692
H -1.4756323382463847 -2.019610951167474 5.167876319521978
H -2.2523998794886277 -1.3054686014954093 4.064169771621975
O 5.157310500363007 8.71200411750834 1.251055590781895
H 5.280564046457818 8.887668422257057 0.3061122208849445
H 6.000803303254758 8.324444203480539 1.529046865480547
O 8.13751315878537 -6.792605019284322 5.035427390403847
H 8.987916358219215 -6.636497794648809 4.597920487933406
H 7.623878754602175 -7.286915519559415 4.379074762270798
O 1.6888296038697674 6.773574973990676 -12.05495193235805
H 1.0778365927047489 7.145131208947031 -12.708863900036087
H 1.4097733773891432 5.849291396011527 -11.972553909078027
O 5.537044407774198 -6.518764460852845 -1.445763777437383
H 4.873491354518479 -6.682043591462258 -0.758737847852154
H 6.23955097397452 -7.156502414528251 -1.2489471846731148
O -8.27064925538154 -0.7109267846835732 -3.808726454838617
H -9.238455813878462 -0.6796949382539257 -3.7720877594613946
H -8.05311784364364 -0.2592357944574535 -4.637953371041813
O -2.149053563313948 5.611263264837026 -11.229381865340647
H -2.024820402970237 5.801918534897601 -12.171286343920691
H -1.885629497890132 4.682881482515826 -11.141763532158032
O 0.5577091049365812 -2.087226137641352 9.727643742600769
H 1.2233073972354525 -2.6747598506175203 10.115909638998154
H 0.7075915055804853 -2.1621129428181987 8.773238599756482
O 3.1053020981447106 7.1917980338329235 8.825297033373168
H 2.2359082707583013 6.7908380644127995 8.675788395746352
H 3.099324118531987 7.980374201477552 8.262203936378846
O 1.0397414296182101 -1.1064329348343465 2.9318777635940725
H 0.8002404232992928 -0.42767302636484106 3.580639361969543
H 1.9145351080909887 -0.8320565853534285 2.618165182957609
O -6.419936167866125 -6.920840769680118 -9.151314094193587
H -6.740195672405212 -7.6070279194479955 -8.546708105018968
H -5.83349382972383 -6.379667645867443 -8.601606009482229
O 1.1075583478210067 -3.87005451580675 4.8125762752661325
H 0.9880867104468569 -3.7399198237679085 5.765340069021487
H 2.0302419290619267 -4.15401628641863 4.729013927049987
C 7.047375292886528 3.7374354228962905 0.7800197946018388
O 7.944127823092428 3.934694271673649 0.01207311452024129
O 6.150622762680628 3.540176574118932 1.5479664746834374