146

C -5.3564454929577465 1.0091607042253532 -0.0734429577464788
C -4.079135492957747 0.16955070422535368 -0.19788295774647868
C -4.333545492957747 -1.2789292957746463 0.3017270422535212
C -3.1403854929577464 -2.1745492957746464 0.7330270422535212
C -2.905235492957746 0.902300704225353 0.41966704225352136
C -2.7423854929577463 1.056130704225354 1.8024770422535212
C -1.8861754929577463 1.3499307042253532 -0.4326129577464788
C -1.5304554929577463 1.5279207042253526 2.3254170422535214
H -3.5237954929577464 0.7301007042253529 2.484817042253521
C -0.6776454929577462 1.8010507042253527 0.08546704225352131
H -1.9759254929577463 1.2426607042253535 -1.5115229577464788
C -0.4680254929577463 1.8513207042253539 1.4698070422535212
H -1.3950654929577464 1.5446707042253527 3.404047042253521
H 0.1461845070422536 1.9972507042253538 -0.6030529577464789
C -1.8679654929577463 -2.0866092957746467 -0.08765295774647863
C -0.6628654929577462 -1.814079295774647 0.5787970422535212
C -1.8438954929577462 -2.213429295774647 -1.4808029577464787
C 0.5129345070422537 -1.5763292957746469 -0.13022295774647863
H -0.6401854929577462 -1.7032692957746463 1.6609470422535213
C -0.6547954929577462 -1.9962392957746466 -2.1933129577464787
H -2.7578654929577464 -2.4351492957746466 -2.026182957746479
C 0.5308845070422537 -1.645769295774647 -1.5261029577464789
H 1.4044045070422537 -1.2610992957746463 0.41551704225352126
H -0.6795654929577464 -2.0467992957746466 -3.2793129577464786
C 1.7843245070422535 -1.2521692957746469 -2.2771629577464787
H 1.4981245070422535 -0.9384492957746469 -3.290282957746479
H 2.241984507042254 -0.38631929577464685 -1.8135029577464787
C 0.9385645070422537 2.0647807042253534 1.9815670422535212
H 1.0508945070422537 1.5807407042253532 2.9609770422535213
H 1.6053245070422537 1.5496207042253536 1.3096170422535214
C 3.9676945070422533 -1.6881692957746468 -3.314052957746479
H 4.795084507042254 -2.398849295774647 -3.4044129577464783
H 3.548404507042253 -1.4816192957746468 -4.303802957746479
H 4.307714507042253 -0.7637192957746466 -2.851282957746479
C 2.344694507042253 -3.565079295774647 -3.101282957746479
H 1.6334345070422536 -4.047909295774646 -2.4251929577464786
H 1.8561845070422536 -3.293109295774647 -4.041792957746479
H 3.1808045070422537 -4.243519295774647 -3.298122957746479
C 3.5156645070422536 -2.648489295774647 -1.1110629577464786
H 3.9311845070422535 -1.748249295774647 -0.6771029577464787
H 2.767184507042254 -3.1044092957746465 -0.45972295774647876
H 4.319224507042254 -3.371819295774647 -1.2863129577464787
C 2.963994507042253 3.381090704225353 2.401027042253521
H 3.3337945070422537 4.369820704225353 2.6912870422535216
H 3.120994507042253 2.671350704225353 3.2183370422535216
H 3.4665445070422534 3.0664207042253535 1.4881370422535212
C 1.2973745070422538 4.282440704225354 0.8488370422535213
H 1.7592145070422538 3.7367207042253527 0.02653704225352116
H 0.23311450704225378 4.4484607042253534 0.6605570422535213
H 1.7921845070422535 5.251370704225354 0.9736770422535213
C 0.7724845070422537 4.194670704225353 3.2772470422535216
H -0.2956954929577462 4.278220704225354 3.057857042253521
H 0.9298945070422537 3.612620704225354 4.190337042253521
H 1.2046345070422537 5.193640704225353 3.3918370422535213
N 2.876084507042253 -2.324759295774647 -2.4576629577464786
N 1.4527845070422536 3.504690704225353 2.1388470422535213
C -3.593905492957746 -3.637819295774647 0.8297870422535213
H -2.8952554929577463 -1.8680692957746468 1.7595270422535212
H -5.022615492957747 -1.2402792957746467 1.1579970422535213
H -4.898275492957747 -1.7933092957746464 -0.48931295774647876
H -3.883675492957746 0.07871070422535364 -1.2758929577464788
H -3.8751654929577466 -4.038529295774646 -0.1505529577464788
H -4.4603554929577465 -3.7321892957746465 1.4932570422535212
H -2.7953554929577464 -4.271929295774647 1.2313670422535212
H -5.648775492957746 1.147700704225353 0.9733970422535213
H -6.189795492957747 0.5254307042253537 -0.5943629577464788
H -5.2178854929577465 2.002970704225354 -0.5139729577464787
C 3.6710445070422537 1.0263707042253536 -0.27764295774647874
O 2.7356545070422538 1.6631507042253526 -0.7327029577464788
O 3.650814507042253 0.3883007042253537 0.7790570422535212
O 4.756604507042254 0.8696707042253538 -0.8334829577464786
O 0.777455993893355 11.152365105578376 -10.398682514138281
H 1.0580333772996626 10.249722753504125 -10.611944027456406
H 1.6070400038043058 11.651225446087333 -10.35520061598104
O -4.087209149725937 -6.631536634362135 1.2390274311863032
H -3.743054718339205 -6.9558527600532996 0.39324723818486595
H -4.417185114591322 -5.744134799573758 1.032639954518311
O -0.9762673719083329 7.695165413245297 -0.9930114862354391
H -1.2815985439944078 7.257465254855164 -1.8018123292108885
H -1.3019589865666856 7.1244997161761745 -0.28081237178088747
O -6.375741802709428 -2.954375181402675 5.221818294610583
H -6.001605727803821 -2.6697972724527625 4.37446655649239
H -7.238218745721989 -3.326403803003074 4.983721314827523
O 12.772221770579554 5.26776360543845 -5.8966577508704585
H 13.335000778278209 6.056389473074839 -5.914445001598769
H 12.00037364189426 5.519040686152094 -6.425876268359253
O 10.451714203557831 -2.1051103982836152 2.2362278265647806
H 10.54160540462609 -2.8339819240032322 2.868393333268259
H 10.541588900145985 -1.3094910080216118 2.782006416335672
O 7.846240794857561 -3.1764434744800782 5.188123766739792
H 7.866655638914606 -3.5049196424061093 4.276721551388766
H 8.734553437128177 -3.3665099903778266 5.5253733974537305
O -5.881129739881233 -14.693488919764542 0.5974386447444964
H -5.994208075791228 -15.231688549431244 -0.20038452205028445
H -5.894242966621368 -13.782040910482122 0.2687252225062524
O 0.6851574716799504 9.758102740930328 -2.555907611504639
H 0.11815689915590655 9.066875059599964 -2.1821670594902027
H 1.5347540991270114 9.313630392235734 -2.6958784876771125
O 5.914817926888959 -4.984905644079248 -0.06166604025131628
H 6.406360870323466 -4.185822440405583 -0.3041921734130293
H 5.893394147439152 -4.961616049155254 0.9068175996426997
O 2.3112656500692053 -1.317269801436902 6.509065290540602
H 1.870097759811255 -2.1705638060281185 6.3816777274348
H 2.9189035593760697 -1.475803699349842 7.247038947716595
O -3.4354749681419205 6.213655314108717 9.7105785864666
H -4.308066065529418 6.567377715379079 9.939560237477359
H -3.6117400421914376 5.290572429151984 9.474336008868335
O -10.432991096149689 -0.3447295599064901 6.346492641502308
H -10.440304118725377 -0.6521774100011415 7.265399435509723
H -11.046636637125028 -0.9431907573891838 5.894557591468936
O 2.944183475592391 -6.263878979909065 -3.094564225345323
H 3.211429836975978 -6.172921659737842 -2.167594158334255
H 3.512299643373841 -6.9719003036660006 -3.4335506104860776
O 1.1393236270620068 2.936561537012965 9.898786561850367
H 1.262569988000618 3.7392978725482977 10.427362069253704
H 0.18398205184854777 2.7781087841768066 9.933096095325904
O 7.456292288869913 -6.699556181531139 3.0704580007579283
H 7.260533152455557 -6.560770309563349 4.009278643454097
H 6.598679914594763 -6.587613079869174 2.6335006781502868
O 1.7655546499215782 12.411890979117729 -4.21184269968216
H 2.0132204650005203 13.34697286914721 -4.154826387277929
H 1.1760964112956755 12.37229901171155 -4.979913923809818
O -3.5400950938453986 11.041137789827282 0.19419399968451523
H -3.5706749334632883 11.978008728567962 -0.051376915637527665
H -2.88124343344266 10.662892280370682 -0.40730975629749877
O 0.7985911813000408 -3.55826469051585 -9.016254517110555
H 1.1562510852447194 -3.2063476411138194 -9.845230475960058
H 1.488387261141563 -3.366003683748491 -8.363430637482926
O 1.4606776357310638 -7.054564124991453 4.900338887974425
H 1.0384181877295109 -7.736518800432073 5.444031941192969
H 1.9500306503920415 -7.5576571846510125 4.232212444354211
O -7.08180959802423 -7.050956833320072 2.5267199883139546
H -7.420550002923211 -6.162095111102439 2.341930557433343
H -6.164465220496197 -6.899749325632116 2.7998088510244257
O 2.633156719868339 7.5634223136765915 5.172100087183122
H 2.036071450493082 7.244418529274134 4.4787797257830055
H 2.4480938892489377 8.513300262445497 5.221552847123373
O 0.6223777721176104 -2.720486084770526 4.27116989563582
H 0.34543479452568737 -2.212657218333313 3.493751226915023
H -0.20090843406593262 -2.8662322878094426 4.760985995113621
O 5.065423657523336 -5.445924425206914 -3.6228599525063503
H 5.328202543708214 -4.545401122191486 -3.8657022770744094
H 5.9070178890978795 -5.908846653998975 -3.4948595471529047
C 2.728670812060066 -1.7583404880197282 -10.627009016979418
O 2.945985005295304 -1.9251964826344814 -9.46178291197677
O 2.511356618824828 -1.5914844934049746 -11.792235121982063