146

C -5.3564454929577465 1.0091607042253532 -0.0734429577464788
C -4.079135492957747 0.16955070422535368 -0.19788295774647868
C -4.333545492957747 -1.2789292957746463 0.3017270422535212
C -3.1403854929577464 -2.1745492957746464 0.7330270422535212
C -2.905235492957746 0.902300704225353 0.41966704225352136
C -2.7423854929577463 1.056130704225354 1.8024770422535212
C -1.8861754929577463 1.3499307042253532 -0.4326129577464788
C -1.5304554929577463 1.5279207042253526 2.3254170422535214
H -3.5237954929577464 0.7301007042253529 2.484817042253521
C -0.6776454929577462 1.8010507042253527 0.08546704225352131
H -1.9759254929577463 1.2426607042253535 -1.5115229577464788
C -0.4680254929577463 1.8513207042253539 1.4698070422535212
H -1.3950654929577464 1.5446707042253527 3.404047042253521
H 0.1461845070422536 1.9972507042253538 -0.6030529577464789
C -1.8679654929577463 -2.0866092957746467 -0.08765295774647863
C -0.6628654929577462 -1.814079295774647 0.5787970422535212
C -1.8438954929577462 -2.213429295774647 -1.4808029577464787
C 0.5129345070422537 -1.5763292957746469 -0.13022295774647863
H -0.6401854929577462 -1.7032692957746463 1.6609470422535213
C -0.6547954929577462 -1.9962392957746466 -2.1933129577464787
H -2.7578654929577464 -2.4351492957746466 -2.026182957746479
C 0.5308845070422537 -1.645769295774647 -1.5261029577464789
H 1.4044045070422537 -1.2610992957746463 0.41551704225352126
H -0.6795654929577464 -2.0467992957746466 -3.2793129577464786
C 1.7843245070422535 -1.2521692957746469 -2.2771629577464787
H 1.4981245070422535 -0.9384492957746469 -3.290282957746479
H 2.241984507042254 -0.38631929577464685 -1.8135029577464787
C 0.9385645070422537 2.0647807042253534 1.9815670422535212
H 1.0508945070422537 1.5807407042253532 2.9609770422535213
H 1.6053245070422537 1.5496207042253536 1.3096170422535214
C 3.9676945070422533 -1.6881692957746468 -3.314052957746479
H 4.795084507042254 -2.398849295774647 -3.4044129577464783
H 3.548404507042253 -1.4816192957746468 -4.303802957746479
H 4.307714507042253 -0.7637192957746466 -2.851282957746479
C 2.344694507042253 -3.565079295774647 -3.101282957746479
H 1.6334345070422536 -4.047909295774646 -2.4251929577464786
H 1.8561845070422536 -3.293109295774647 -4.041792957746479
H 3.1808045070422537 -4.243519295774647 -3.298122957746479
C 3.5156645070422536 -2.648489295774647 -1.1110629577464786
H 3.9311845070422535 -1.748249295774647 -0.6771029577464787
H 2.767184507042254 -3.1044092957746465 -0.45972295774647876
H 4.319224507042254 -3.371819295774647 -1.2863129577464787
C 2.963994507042253 3.381090704225353 2.401027042253521
H 3.3337945070422537 4.369820704225353 2.6912870422535216
H 3.120994507042253 2.671350704225353 3.2183370422535216
H 3.4665445070422534 3.0664207042253535 1.4881370422535212
C 1.2973745070422538 4.282440704225354 0.8488370422535213
H 1.7592145070422538 3.7367207042253527 0.02653704225352116
H 0.23311450704225378 4.4484607042253534 0.6605570422535213
H 1.7921845070422535 5.251370704225354 0.9736770422535213
C 0.7724845070422537 4.194670704225353 3.2772470422535216
H -0.2956954929577462 4.278220704225354 3.057857042253521
H 0.9298945070422537 3.612620704225354 4.190337042253521
H 1.2046345070422537 5.193640704225353 3.3918370422535213
N 2.876084507042253 -2.324759295774647 -2.4576629577464786
N 1.4527845070422536 3.504690704225353 2.1388470422535213
C -3.593905492957746 -3.637819295774647 0.8297870422535213
H -2.8952554929577463 -1.8680692957746468 1.7595270422535212
H -5.022615492957747 -1.2402792957746467 1.1579970422535213
H -4.898275492957747 -1.7933092957746464 -0.48931295774647876
H -3.883675492957746 0.07871070422535364 -1.2758929577464788
H -3.8751654929577466 -4.038529295774646 -0.1505529577464788
H -4.4603554929577465 -3.7321892957746465 1.4932570422535212
H -2.7953554929577464 -4.271929295774647 1.2313670422535212
H -5.648775492957746 1.147700704225353 0.9733970422535213
H -6.189795492957747 0.5254307042253537 -0.5943629577464788
H -5.2178854929577465 2.002970704225354 -0.5139729577464787
C 3.6710445070422537 1.0263707042253536 -0.27764295774647874
O 2.7356545070422538 1.6631507042253526 -0.7327029577464788
O 3.650814507042253 0.3883007042253537 0.7790570422535212
O 4.756604507042254 0.8696707042253538 -0.8334829577464786
O -1.9184333738248753 8.13285670131658 11.316637962029004
H -2.665726383702842 7.831566341694754 10.778358635390427
H -1.537317651405436 7.313863013427671 11.667297468705828
O 0.6493830133046998 -7.543597471010641 3.275766073990953
H 0.2355052392436563 -7.453471082006775 4.147287605017812
H -0.0663772193194263 -7.868710272858061 2.70924078791029
O -9.89854051261152 -7.075341813247214 -1.8510795016501822
H -10.794353123761743 -7.44341091906559 -1.819263531662082
H -9.923254843043988 -6.344079458709824 -1.2157791671565625
O -5.889015105909426 -12.972256545135686 0.3751070621636927
H -6.6167690259542 -12.355148074133869 0.20623218606524318
H -6.000288937352075 -13.216187234170203 1.3062772387067438
O 6.843795120278987 -8.096798518178439 -2.0057744127721495
H 7.438056961358549 -8.84554970513472 -1.8470549080845138
H 6.836474124559559 -8.004161666627905 -2.9703088917082217
O 4.745351447461701 -2.491673431745869 -6.129909393540626
H 4.548350678660027 -1.6256347178156438 -6.517381973171279
H 5.649242796736546 -2.679623404798998 -6.424217362572095
O -2.2688908270088746 -11.669284719497986 -6.204072297408461
H -1.6552092703889092 -12.06572636541291 -6.840622629549421
H -1.8954798840205587 -10.791337343767406 -6.0345594146993164
O 3.5307671457180416 2.7352221079694625 11.641845929072108
H 3.8906374780454134 1.8447082553420717 11.770087026577198
H 3.153228504634694 2.708880045327566 10.7498074688448
O 2.5491737917712167 -3.495605204899226 -12.851701942999833
H 2.4868207505220576 -3.196980365551171 -13.771431610060395
H 3.4301299994468497 -3.205869087980236 -12.570755174001736
O -0.04651949558446944 -14.015499880717453 -1.7584093142562605
H 0.2494878365661597 -14.713214409120898 -1.1546366309823104
H 0.7253319391748905 -13.849038802499905 -2.320101415321044
O 3.334385216164044 9.74515328678839 -3.089664990002816
H 3.5787463588801827 9.098331749711184 -3.7685441309428986
H 3.316848975953163 9.228778573613791 -2.269901865574109
O -0.4117043146619108 -4.061616780465243 8.71053183778913
H 0.09206118837713012 -4.39524277637586 9.468081420127124
H -0.7207361431737295 -3.190170219366477 9.000432104114937
O 0.19946632846007795 -8.743646722737736 -5.945655238798767
H -0.5451186983186016 -8.26537447560363 -6.340390786245774
H -0.21412605513376537 -9.309518891309247 -5.276557358538084
O 4.6480836785121005 3.6088943913741445 6.780170678305592
H 4.975183295648237 3.6999538944180497 5.872601747438746
H 3.883084242988679 3.0202233240680263 6.695293222726854
O -8.92911431681726 0.5544481098288754 -0.43312646381804043
H -8.774508706973393 0.22324009660480137 -1.3305481675231432
H -8.582090043925012 1.4589271711982401 -0.45442730577324564
O 0.9499529856521565 -7.44663889865255 -7.668156605674121
H 0.8025349356744815 -7.46649199882442 -8.625674819524045
H 0.5728764463147829 -6.598190637381487 -7.39082868474394
O 4.979233218937421 5.711689901941838 -0.6200782976660935
H 4.117352313213585 6.1117005011469985 -0.8101314001721853
H 5.430946278675756 5.710671374544205 -1.4773508439218164
O -2.52152627207857 6.597407830239225 -7.881634508062554
H -2.5295494055960583 5.6624414920775745 -8.136076903769627
H -1.5963142236406345 6.7691258159055945 -7.65042563469485
O -9.75289886302317 1.2252056286132795 -8.278800675824364
H -9.44832783905493 1.277937659693496 -9.197181414492748
H -9.736809704793682 0.27675229220318975 -8.080963995858198
O 7.962064980165563 8.397497414392808 5.120672425911705
H 7.903221633498336 8.19277148257025 4.175372415178401
H 7.128632023267743 8.852466646000092 5.313945416645626
O -13.401569992444173 -3.8622876137949076 -10.580220539119274
H -14.337740077597916 -3.8836618195012997 -10.331029704830264
H -12.93277542107556 -3.9499861986965445 -9.736714432228773
O 7.792221751046208 -10.982984377315073 6.11951859147666
H 8.329487525743009 -10.61792262073663 6.838575444669306
H 6.886642945796389 -10.946937632221585 6.462431997383275
O 16.322629450750696 0.5534059717890036 -5.450928256707778
H 16.918974240944287 -0.13262061411573267 -5.7866480379850405
H 16.764605122457322 1.3831408577133883 -5.685788787660775
O 5.0944459269762055 8.684096083814492 -1.1987967570423814
H 4.582233095194072 9.092324323763462 -0.4846853679959011
H 4.752413786389241 9.104505790183635 -2.002059875762585
C -1.9470046205911664 9.134146612653627 -9.783533301345901
O -2.029252062742434 7.951840548575119 -9.615586921799423
O -1.8647571784398995 10.316452676732132 -9.951479680892378