146

C -5.3564454929577465 1.0091607042253532 -0.0734429577464788
C -4.079135492957747 0.16955070422535368 -0.19788295774647868
C -4.333545492957747 -1.2789292957746463 0.3017270422535212
C -3.1403854929577464 -2.1745492957746464 0.7330270422535212
C -2.905235492957746 0.902300704225353 0.41966704225352136
C -2.7423854929577463 1.056130704225354 1.8024770422535212
C -1.8861754929577463 1.3499307042253532 -0.4326129577464788
C -1.5304554929577463 1.5279207042253526 2.3254170422535214
H -3.5237954929577464 0.7301007042253529 2.484817042253521
C -0.6776454929577462 1.8010507042253527 0.08546704225352131
H -1.9759254929577463 1.2426607042253535 -1.5115229577464788
C -0.4680254929577463 1.8513207042253539 1.4698070422535212
H -1.3950654929577464 1.5446707042253527 3.404047042253521
H 0.1461845070422536 1.9972507042253538 -0.6030529577464789
C -1.8679654929577463 -2.0866092957746467 -0.08765295774647863
C -0.6628654929577462 -1.814079295774647 0.5787970422535212
C -1.8438954929577462 -2.213429295774647 -1.4808029577464787
C 0.5129345070422537 -1.5763292957746469 -0.13022295774647863
H -0.6401854929577462 -1.7032692957746463 1.6609470422535213
C -0.6547954929577462 -1.9962392957746466 -2.1933129577464787
H -2.7578654929577464 -2.4351492957746466 -2.026182957746479
C 0.5308845070422537 -1.645769295774647 -1.5261029577464789
H 1.4044045070422537 -1.2610992957746463 0.41551704225352126
H -0.6795654929577464 -2.0467992957746466 -3.2793129577464786
C 1.7843245070422535 -1.2521692957746469 -2.2771629577464787
H 1.4981245070422535 -0.9384492957746469 -3.290282957746479
H 2.241984507042254 -0.38631929577464685 -1.8135029577464787
C 0.9385645070422537 2.0647807042253534 1.9815670422535212
H 1.0508945070422537 1.5807407042253532 2.9609770422535213
H 1.6053245070422537 1.5496207042253536 1.3096170422535214
C 3.9676945070422533 -1.6881692957746468 -3.314052957746479
H 4.795084507042254 -2.398849295774647 -3.4044129577464783
H 3.548404507042253 -1.4816192957746468 -4.303802957746479
H 4.307714507042253 -0.7637192957746466 -2.851282957746479
C 2.344694507042253 -3.565079295774647 -3.101282957746479
H 1.6334345070422536 -4.047909295774646 -2.4251929577464786
H 1.8561845070422536 -3.293109295774647 -4.041792957746479
H 3.1808045070422537 -4.243519295774647 -3.298122957746479
C 3.5156645070422536 -2.648489295774647 -1.1110629577464786
H 3.9311845070422535 -1.748249295774647 -0.6771029577464787
H 2.767184507042254 -3.1044092957746465 -0.45972295774647876
H 4.319224507042254 -3.371819295774647 -1.2863129577464787
C 2.963994507042253 3.381090704225353 2.401027042253521
H 3.3337945070422537 4.369820704225353 2.6912870422535216
H 3.120994507042253 2.671350704225353 3.2183370422535216
H 3.4665445070422534 3.0664207042253535 1.4881370422535212
C 1.2973745070422538 4.282440704225354 0.8488370422535213
H 1.7592145070422538 3.7367207042253527 0.02653704225352116
H 0.23311450704225378 4.4484607042253534 0.6605570422535213
H 1.7921845070422535 5.251370704225354 0.9736770422535213
C 0.7724845070422537 4.194670704225353 3.2772470422535216
H -0.2956954929577462 4.278220704225354 3.057857042253521
H 0.9298945070422537 3.612620704225354 4.190337042253521
H 1.2046345070422537 5.193640704225353 3.3918370422535213
N 2.876084507042253 -2.324759295774647 -2.4576629577464786
N 1.4527845070422536 3.504690704225353 2.1388470422535213
C -3.593905492957746 -3.637819295774647 0.8297870422535213
H -2.8952554929577463 -1.8680692957746468 1.7595270422535212
H -5.022615492957747 -1.2402792957746467 1.1579970422535213
H -4.898275492957747 -1.7933092957746464 -0.48931295774647876
H -3.883675492957746 0.07871070422535364 -1.2758929577464788
H -3.8751654929577466 -4.038529295774646 -0.1505529577464788
H -4.4603554929577465 -3.7321892957746465 1.4932570422535212
H -2.7953554929577464 -4.271929295774647 1.2313670422535212
H -5.648775492957746 1.147700704225353 0.9733970422535213
H -6.189795492957747 0.5254307042253537 -0.5943629577464788
H -5.2178854929577465 2.002970704225354 -0.5139729577464787
C 3.6710445070422537 1.0263707042253536 -0.27764295774647874
O 2.7356545070422538 1.6631507042253526 -0.7327029577464788
O 3.650814507042253 0.3883007042253537 0.7790570422535212
O 4.756604507042254 0.8696707042253538 -0.8334829577464786
O 4.855122569330543 7.181683253786408 8.692137617504033
H 5.169787753209473 8.045359043848034 8.998760037779956
H 4.058790916295061 7.390638201200189 8.181103692382537
O 2.9029281757420176 -8.071677336530872 -10.3496861847208
H 2.3917122209343633 -7.597320635570317 -11.022450128986485
H 3.6284856678675053 -7.465748109529571 -10.136664960928014
O -7.350488197386723 -10.583194102229173 -5.149299519352577
H -7.465624272246845 -9.63889406948229 -5.333713426962717
H -7.2114026697382245 -10.619271202507246 -4.191011669521293
O 11.536749286582989 -0.252893123940674 0.5948191772740117
H 12.271291864774 0.020229112735954402 0.0248904084289423
H 11.965596753633383 -0.49559250576414815 1.429174499883609
O 6.309175227638589 0.9271742398193846 -8.701771997127365
H 6.369355586465645 1.7463246329529931 -8.18763357730202
H 5.369550603238915 0.6938846904626478 -8.661231946773368
O -7.405930831511715 -3.037916668431986 11.634393298377029
H -7.759365881086599 -2.3676511948879506 12.238376094164119
H -6.475400389754332 -3.118216452037651 11.892515335436428
O 9.798538317545633 0.6439804759645655 0.027969470308770672
H 10.187614472724357 0.598035177629928 0.9142403837050544
H 9.623262581556515 1.5880863935165213 -0.10204736366611089
O -0.8445758617383365 9.00018016230415 0.4451816505965359
H -0.5140833406297949 8.173370290532517 0.06291540001678941
H -1.794554645296913 8.982728623281941 0.2549247220122589
O 0.8269287841986515 2.7586408762241277 -11.548904704745485
H 1.067739342706112 3.550426814830459 -11.044868337767255
H 1.1619070709334949 2.9377886813360887 -12.440340375806365
O -12.391407670714631 -3.7805894331328016 -1.5115105484744675
H -12.503123007728046 -4.119718660130845 -0.6106895852571985
H -11.430389665059241 -3.7394878203215747 -1.6286301221180457
O 11.446532094211753 -0.016681922228667188 -3.8325414902112347
H 12.376143269872644 -0.17704192700444324 -4.054070467671721
H 11.3497160411706 -0.39102535780363185 -2.9440283567036514
O -1.2599320106457328 9.648847993057032 -5.73145185116498
H -1.342804499835062 9.427034883360006 -6.671078613130655
H -1.490620987321592 8.825592024769975 -5.27538809353894
O -1.3490248263689617 -7.238016840563359 -2.8246588349691786
H -2.2410073099806307 -7.5769090538685235 -2.655878878839644
H -0.8927133035533587 -7.980652838072165 -3.248018627167028
O -5.763075096811484 -3.935580333038386 -1.4067431911555808
H -5.016789307111926 -3.3372803306842127 -1.2516239332424997
H -5.878464243245411 -4.39052202420258 -0.5589959724483101
O 8.6581596213243 -1.4003212787402057 9.222147782368285
H 8.837842623676034 -1.333922824529746 8.272267463146791
H 7.783850577724334 -0.9951038701817481 9.323855660039984
O -5.3703442177379195 2.9430679965195994 3.64304566895815
H -5.453204666736155 2.9021050350089954 4.60763031463529
H -5.900210469347801 2.194347055887425 3.3306026297273754
O 3.086352168871837 8.418696947801745 -5.174167210677055
H 3.182397223836082 8.4666626287149 -4.211129310191589
H 3.3307691081775745 7.505873464500878 -5.388586408546291
O 0.8961344149024795 1.1500247199563662 5.95132765203953
H 1.2547737486050485 0.8133312159520659 5.11647277268463
H 0.34685663308605186 1.9021162896059156 5.683719480331526
O 5.316512166173845 7.674368205755052 5.530595898860826
H 6.034486906100535 7.036237019435916 5.658142826593848
H 4.525754284266158 7.199405081873308 5.827368450579078
O 5.101297459824428 -3.2100475976449694 2.6699033803354535
H 5.461625601810901 -2.61965379875201 1.991253139621345
H 5.495054814469982 -2.886956777670246 3.494239120195491
O -1.2102602295964666 10.1982369434846 5.965140779146647
H -1.534263869683175 10.329710960209763 6.868857317136693
H -1.3735542469140056 11.049419019698075 5.531797864884491
O 2.5913355838117855 8.363290088073061 -1.9822440291226553
H 2.2862583344793057 8.437624404790043 -2.898960800103719
H 3.165902186271455 7.583043238965482 -1.9893163763742034
O -5.657056245442633 0.18840449693416195 -4.053099734337832
H -6.461550555076099 0.23873082595233103 -4.5908947912832545
H -5.178180425885894 -0.5705041862616875 -4.418746427627681
O -0.7579751422067162 3.9606934441479247 -7.0797018526490225
H -0.6803165107287974 3.549626532693869 -7.953750185502877
H -0.992864873790739 3.2246190162141133 -6.494908560247085
C -3.7469559146749734 -3.9676225199228785 9.449919319641616
O -4.875978425524627 -3.8168378869761446 9.817873694207082
O -2.61793340382532 -4.118407152869612 9.081964945076152