146

C -5.3564454929577465 1.0091607042253532 -0.0734429577464788
C -4.079135492957747 0.16955070422535368 -0.19788295774647868
C -4.333545492957747 -1.2789292957746463 0.3017270422535212
C -3.1403854929577464 -2.1745492957746464 0.7330270422535212
C -2.905235492957746 0.902300704225353 0.41966704225352136
C -2.7423854929577463 1.056130704225354 1.8024770422535212
C -1.8861754929577463 1.3499307042253532 -0.4326129577464788
C -1.5304554929577463 1.5279207042253526 2.3254170422535214
H -3.5237954929577464 0.7301007042253529 2.484817042253521
C -0.6776454929577462 1.8010507042253527 0.08546704225352131
H -1.9759254929577463 1.2426607042253535 -1.5115229577464788
C -0.4680254929577463 1.8513207042253539 1.4698070422535212
H -1.3950654929577464 1.5446707042253527 3.404047042253521
H 0.1461845070422536 1.9972507042253538 -0.6030529577464789
C -1.8679654929577463 -2.0866092957746467 -0.08765295774647863
C -0.6628654929577462 -1.814079295774647 0.5787970422535212
C -1.8438954929577462 -2.213429295774647 -1.4808029577464787
C 0.5129345070422537 -1.5763292957746469 -0.13022295774647863
H -0.6401854929577462 -1.7032692957746463 1.6609470422535213
C -0.6547954929577462 -1.9962392957746466 -2.1933129577464787
H -2.7578654929577464 -2.4351492957746466 -2.026182957746479
C 0.5308845070422537 -1.645769295774647 -1.5261029577464789
H 1.4044045070422537 -1.2610992957746463 0.41551704225352126
H -0.6795654929577464 -2.0467992957746466 -3.2793129577464786
C 1.7843245070422535 -1.2521692957746469 -2.2771629577464787
H 1.4981245070422535 -0.9384492957746469 -3.290282957746479
H 2.241984507042254 -0.38631929577464685 -1.8135029577464787
C 0.9385645070422537 2.0647807042253534 1.9815670422535212
H 1.0508945070422537 1.5807407042253532 2.9609770422535213
H 1.6053245070422537 1.5496207042253536 1.3096170422535214
C 3.9676945070422533 -1.6881692957746468 -3.314052957746479
H 4.795084507042254 -2.398849295774647 -3.4044129577464783
H 3.548404507042253 -1.4816192957746468 -4.303802957746479
H 4.307714507042253 -0.7637192957746466 -2.851282957746479
C 2.344694507042253 -3.565079295774647 -3.101282957746479
H 1.6334345070422536 -4.047909295774646 -2.4251929577464786
H 1.8561845070422536 -3.293109295774647 -4.041792957746479
H 3.1808045070422537 -4.243519295774647 -3.298122957746479
C 3.5156645070422536 -2.648489295774647 -1.1110629577464786
H 3.9311845070422535 -1.748249295774647 -0.6771029577464787
H 2.767184507042254 -3.1044092957746465 -0.45972295774647876
H 4.319224507042254 -3.371819295774647 -1.2863129577464787
C 2.963994507042253 3.381090704225353 2.401027042253521
H 3.3337945070422537 4.369820704225353 2.6912870422535216
H 3.120994507042253 2.671350704225353 3.2183370422535216
H 3.4665445070422534 3.0664207042253535 1.4881370422535212
C 1.2973745070422538 4.282440704225354 0.8488370422535213
H 1.7592145070422538 3.7367207042253527 0.02653704225352116
H 0.23311450704225378 4.4484607042253534 0.6605570422535213
H 1.7921845070422535 5.251370704225354 0.9736770422535213
C 0.7724845070422537 4.194670704225353 3.2772470422535216
H -0.2956954929577462 4.278220704225354 3.057857042253521
H 0.9298945070422537 3.612620704225354 4.190337042253521
H 1.2046345070422537 5.193640704225353 3.3918370422535213
N 2.876084507042253 -2.324759295774647 -2.4576629577464786
N 1.4527845070422536 3.504690704225353 2.1388470422535213
C -3.593905492957746 -3.637819295774647 0.8297870422535213
H -2.8952554929577463 -1.8680692957746468 1.7595270422535212
H -5.022615492957747 -1.2402792957746467 1.1579970422535213
H -4.898275492957747 -1.7933092957746464 -0.48931295774647876
H -3.883675492957746 0.07871070422535364 -1.2758929577464788
H -3.8751654929577466 -4.038529295774646 -0.1505529577464788
H -4.4603554929577465 -3.7321892957746465 1.4932570422535212
H -2.7953554929577464 -4.271929295774647 1.2313670422535212
H -5.648775492957746 1.147700704225353 0.9733970422535213
H -6.189795492957747 0.5254307042253537 -0.5943629577464788
H -5.2178854929577465 2.002970704225354 -0.5139729577464787
C 3.6710445070422537 1.0263707042253536 -0.27764295774647874
O 2.7356545070422538 1.6631507042253526 -0.7327029577464788
O 3.650814507042253 0.3883007042253537 0.7790570422535212
O 4.756604507042254 0.8696707042253538 -0.8334829577464786
O 3.2346947133026585 -8.795869166615716 5.075226205273827
H 3.1993885663068933 -8.766423542097018 6.043138281901151
H 2.327761160576757 -8.591974780860738 4.801619636095427
O 10.07444445255819 7.6732142322547086 4.232419083621386
H 10.62207075912071 7.9665496402753675 4.976077018200215
H 10.156886091105548 8.388932165771305 3.5844120156226182
O 1.9491494070118982 12.28092536859194 -1.7811915512180114
H 2.498491518281699 11.822312442085105 -2.434540451367444
H 1.953462030714662 13.203363922966876 -2.0779245271062328
O -6.7957185756070535 6.649863923678974 -4.62329995930364
H -6.8849692188091005 6.765939012434977 -5.5811769103564925
H -6.211719330912972 7.374378334456334 -4.3531413113342
O 8.139368877391515 -7.892314306567677 5.255556310788337
H 8.298953567980519 -8.349571592357702 6.094851168404868
H 7.697826574597613 -7.070363690399557 5.517089336856373
O -9.097391666809505 -2.859956507667391 13.410822577065879
H -8.930482383924552 -2.925582754611569 14.36308401380416
H -8.7502228917664 -3.691499893255859 13.05449213517361
O 5.600797432050563 7.4113629378407015 1.1244554166683063
H 5.696184090050406 7.502827428316884 2.0844048889623195
H 5.997434274570074 8.22197580388935 0.77154191331012
O 6.343720933254072 -2.182308946762441 -1.9577140668976032
H 6.580219028405373 -1.527726502283639 -1.283505025672284
H 5.6936111925530755 -1.723945924834478 -2.511087909317669
O 2.925893811422354 -9.51493691766073 -3.991370271709731
H 2.7787644946915737 -10.359433043261312 -3.5395444038093378
H 2.17286509153083 -9.438913257844948 -4.596457120407292
O -2.1166851157816096 -0.7083170205795633 -6.611380887250057
H -1.4186060761490915 -1.242208775191663 -7.019562961431365
H -1.6620199537003717 -0.23306889748114723 -5.899776533566723
O 1.400602296836075 4.342682957887141 9.178383748192669
H 2.126225462227401 4.982405893375177 9.121877601995616
H 1.3063207250982738 4.179040817326944 10.128801645416582
O -9.091589959506436 0.5493460022646612 -3.6362873364132864
H -8.523688383348123 0.5867994828744816 -2.8520345751895104
H -8.632844496091082 1.1049635824873945 -4.284209900184039
O -3.1228276441639853 -7.658304379556277 -0.9077893489070399
H -3.3694902416017714 -8.244763907875742 -1.6386724733315665
H -3.8999931525556417 -7.665937356724786 -0.32906881658951326
O 12.163987371679989 -0.9841607697048835 -7.732647223771894
H 13.097065572391301 -1.1808424833175413 -7.56045915279214
H 11.689109217969513 -1.4949329665447615 -7.059918120518665
O -7.203404937806569 -12.033158370831593 -4.703445888874701
H -7.7885909773823725 -12.402736660558833 -5.3816321050040745
H -7.575600304641613 -12.359078029028254 -3.870253876426492
O 11.788134645638559 -1.1583669360889335 3.423593303222984
H 12.279404746146351 -1.1505651909701413 4.258793984508727
H 11.503109127906239 -2.0795840949218944 3.328297212992841
O 0.7852523011248037 -5.057684964294032 -5.26633371469041
H 1.43539941794169 -5.760972543480499 -5.413516133330447
H 0.008506171209315572 -5.524929249487178 -4.9238279893139465
O 1.5191941068581525 -6.266833672557942 0.9346483485331407
H 1.115045617745691 -5.813458507567919 0.1796103922565142
H 1.4081634050331822 -5.643888299901087 1.668523808156683
O 2.1420672790996136 13.631173728557641 0.5720560107636659
H 2.334816966706857 13.127190437603828 -0.23281401431285043
H 1.1918114825206976 13.811531030181186 0.5133439241098592
O -4.761524983891598 -9.729331964481542 4.416386667594091
H -5.018026494327945 -8.797681074489827 4.344269046851865
H -4.158859196656424 -9.864643383978084 3.6697631259413797
O -3.8438086657279076 2.7891598035539813 -4.060168341175322
H -3.992491540791525 2.8368118928585737 -3.103826332295797
H -2.878724985117245 2.7825441386376935 -4.146953516733664
O 10.586849946447643 5.800163581513052 -6.150048951716835
H 10.290788399956421 6.103442904608312 -7.021448154018576
H 11.128316880471244 5.020583545331553 -6.345062979023402
O -3.3122626878900814 -5.181586233713194 10.32422389872524
H -3.6685992137955936 -5.4272519899103315 9.457252172866964
H -4.082347481385229 -5.213888453412443 10.911495489839638
O -0.13929664568553557 -4.0996532542967685 9.67998398906964
H -0.13689123954600335 -3.993996076154899 10.64320677307571
H -0.505161883545111 -4.98636491168523 9.542699581078923
C 6.788449642436266 11.536447519001065 3.340330833132067
O 6.016636626460313 11.585627822338047 4.253952321185946
O 7.56026265841222 11.487267215664087 2.426709345078187