146

C -5.3564454929577465 1.0091607042253532 -0.0734429577464788
C -4.079135492957747 0.16955070422535368 -0.19788295774647868
C -4.333545492957747 -1.2789292957746463 0.3017270422535212
C -3.1403854929577464 -2.1745492957746464 0.7330270422535212
C -2.905235492957746 0.902300704225353 0.41966704225352136
C -2.7423854929577463 1.056130704225354 1.8024770422535212
C -1.8861754929577463 1.3499307042253532 -0.4326129577464788
C -1.5304554929577463 1.5279207042253526 2.3254170422535214
H -3.5237954929577464 0.7301007042253529 2.484817042253521
C -0.6776454929577462 1.8010507042253527 0.08546704225352131
H -1.9759254929577463 1.2426607042253535 -1.5115229577464788
C -0.4680254929577463 1.8513207042253539 1.4698070422535212
H -1.3950654929577464 1.5446707042253527 3.404047042253521
H 0.1461845070422536 1.9972507042253538 -0.6030529577464789
C -1.8679654929577463 -2.0866092957746467 -0.08765295774647863
C -0.6628654929577462 -1.814079295774647 0.5787970422535212
C -1.8438954929577462 -2.213429295774647 -1.4808029577464787
C 0.5129345070422537 -1.5763292957746469 -0.13022295774647863
H -0.6401854929577462 -1.7032692957746463 1.6609470422535213
C -0.6547954929577462 -1.9962392957746466 -2.1933129577464787
H -2.7578654929577464 -2.4351492957746466 -2.026182957746479
C 0.5308845070422537 -1.645769295774647 -1.5261029577464789
H 1.4044045070422537 -1.2610992957746463 0.41551704225352126
H -0.6795654929577464 -2.0467992957746466 -3.2793129577464786
C 1.7843245070422535 -1.2521692957746469 -2.2771629577464787
H 1.4981245070422535 -0.9384492957746469 -3.290282957746479
H 2.241984507042254 -0.38631929577464685 -1.8135029577464787
C 0.9385645070422537 2.0647807042253534 1.9815670422535212
H 1.0508945070422537 1.5807407042253532 2.9609770422535213
H 1.6053245070422537 1.5496207042253536 1.3096170422535214
C 3.9676945070422533 -1.6881692957746468 -3.314052957746479
H 4.795084507042254 -2.398849295774647 -3.4044129577464783
H 3.548404507042253 -1.4816192957746468 -4.303802957746479
H 4.307714507042253 -0.7637192957746466 -2.851282957746479
C 2.344694507042253 -3.565079295774647 -3.101282957746479
H 1.6334345070422536 -4.047909295774646 -2.4251929577464786
H 1.8561845070422536 -3.293109295774647 -4.041792957746479
H 3.1808045070422537 -4.243519295774647 -3.298122957746479
C 3.5156645070422536 -2.648489295774647 -1.1110629577464786
H 3.9311845070422535 -1.748249295774647 -0.6771029577464787
H 2.767184507042254 -3.1044092957746465 -0.45972295774647876
H 4.319224507042254 -3.371819295774647 -1.2863129577464787
C 2.963994507042253 3.381090704225353 2.401027042253521
H 3.3337945070422537 4.369820704225353 2.6912870422535216
H 3.120994507042253 2.671350704225353 3.2183370422535216
H 3.4665445070422534 3.0664207042253535 1.4881370422535212
C 1.2973745070422538 4.282440704225354 0.8488370422535213
H 1.7592145070422538 3.7367207042253527 0.02653704225352116
H 0.23311450704225378 4.4484607042253534 0.6605570422535213
H 1.7921845070422535 5.251370704225354 0.9736770422535213
C 0.7724845070422537 4.194670704225353 3.2772470422535216
H -0.2956954929577462 4.278220704225354 3.057857042253521
H 0.9298945070422537 3.612620704225354 4.190337042253521
H 1.2046345070422537 5.193640704225353 3.3918370422535213
N 2.876084507042253 -2.324759295774647 -2.4576629577464786
N 1.4527845070422536 3.504690704225353 2.1388470422535213
C -3.593905492957746 -3.637819295774647 0.8297870422535213
H -2.8952554929577463 -1.8680692957746468 1.7595270422535212
H -5.022615492957747 -1.2402792957746467 1.1579970422535213
H -4.898275492957747 -1.7933092957746464 -0.48931295774647876
H -3.883675492957746 0.07871070422535364 -1.2758929577464788
H -3.8751654929577466 -4.038529295774646 -0.1505529577464788
H -4.4603554929577465 -3.7321892957746465 1.4932570422535212
H -2.7953554929577464 -4.271929295774647 1.2313670422535212
H -5.648775492957746 1.147700704225353 0.9733970422535213
H -6.189795492957747 0.5254307042253537 -0.5943629577464788
H -5.2178854929577465 2.002970704225354 -0.5139729577464787
C 3.6710445070422537 1.0263707042253536 -0.27764295774647874
O 2.7356545070422538 1.6631507042253526 -0.7327029577464788
O 3.650814507042253 0.3883007042253537 0.7790570422535212
O 4.756604507042254 0.8696707042253538 -0.8334829577464786
O 5.245347072135073 4.360838568193953 7.934512777348198
H 4.345761279899597 4.718088412059041 7.888847600610954
H 5.743859689594494 5.042090942220969 8.410267249125724
O -0.16399960131292302 -6.786224232687346 -8.452567036310034
H 0.7311197345140754 -6.472980470300964 -8.651582304203377
H -0.1797578318206665 -7.688887087069165 -8.804580379509595
O 1.1868510278208664 9.522577049154158 -5.6999910311569355
H 1.0058807766662978 9.286378396484997 -6.622177195428731
H 2.1202066656561316 9.292383362623466 -5.57825334470556
O 1.664283492958299 -0.5455689868674806 2.172666806701931
H 1.5025802671277884 0.36612966869545305 2.458367673170248
H 1.924982250708943 -0.45695947305121865 1.2436100505946863
O -2.038124949721785 10.11549645464499 -0.18459157064684373
H -2.009906916205139 10.76434915511425 0.5345476874792876
H -1.5345705845784172 9.36255841198053 0.1596165779401293
O 5.808573007452546 3.789762761957781 0.21126957779112843
H 6.420691447468705 3.74636327651863 0.9611994791524485
H 5.2158866595668245 3.035624340219952 0.34896517753441225
O 9.718470022437808 4.1435329525638185 -1.8257876016214167
H 10.47705011356827 4.4120412572027465 -1.2859479100643503
H 9.560041488401026 3.2236201576251386 -1.5657437714483797
O 4.154732436749124 -1.1796496013985012 -9.046326847749876
H 4.118647861209861 -1.2360015679623795 -10.013016930544014
H 4.001333114344789 -2.0903245999710576 -8.752896039618273
O 5.52863536367685 5.007766519801796 -11.01419169123493
H 5.681043430331633 4.102184309706241 -11.323481197809276
H 4.565506872035693 5.108220260303107 -11.049610597320827
O -3.7384254681324447 -6.825536536669271 -2.9510855901989164
H -2.9059501829085717 -6.456022834246894 -3.2818602568732844
H -4.176245850875304 -7.164727558769773 -3.746211182342267
O -9.142954328186104 -5.702119540693898 1.1907323818551907
H -9.247675376667715 -5.252738759550133 2.042822619120899
H -10.051304284607419 -5.899358122453021 0.9169455252768577
O 8.53377171629262 10.03167721992004 1.7316322251260816
H 9.00837733052127 10.73661381390797 1.2660344735213913
H 7.668463075018544 10.005007722609239 1.2963258530734727
O 2.5909539684893907 -7.433781557232237 2.86414958193052
H 2.2078451022772123 -7.479814871815833 3.753011712678628
H 3.473008720357898 -7.059494700606562 3.0085473241686094
O 4.972838422345079 3.6743030194274193 -3.6425805560312567
H 4.005415782671655 3.660320390631157 -3.696108859191841
H 5.238739790885656 4.262914607859595 -4.364934212124724
O -3.115309300035802 -7.150419157208953 4.770491102360442
H -3.0069132456094785 -6.80853013732899 5.670674167281309
H -2.415926897635172 -6.708098820894579 4.266329501685558
O 1.2531435299755973 -9.331398092271762 10.192330155685376
H 1.3336646071434473 -9.251716040838549 11.154688968037155
H 1.1722069582188457 -8.415140316116492 9.887563190140774
O -8.577077996347452 -2.321230282490452 5.762240584648602
H -8.51376539753716 -1.422485190218692 6.118914288262021
H -9.498112689408014 -2.573769256716223 5.926195166700558
O 6.658444025307525 0.852112247199347 -5.121193124732071
H 6.4903850423428775 0.08854033463663546 -5.693627810517455
H 6.820885363947416 1.5785074157311687 -5.7416162182211075
O -8.670866731600059 0.3596267568966849 -7.1199017605579495
H -8.345835042944561 0.14434697386439144 -8.007018648734094
H -8.153888686490069 -0.21488084740617897 -6.535404833472413
O 2.4484637241456895 0.7920944998437753 -6.058619082188723
H 3.048554018416077 0.6452998249932417 -6.8051512777824605
H 1.8761404341351375 1.5148567857872097 -6.3569857593316605
O 5.268374898080742 6.594125513275197 -4.549933845211628
H 5.32772344718915 6.111513403216374 -5.388104864660105
H 6.079883680627504 6.348820264783256 -4.080635672178984
O 4.449837414432174 -8.306037579079678 -2.48456045021498
H 3.989627474637942 -8.125046629999838 -3.3178769834517614
H 4.212499632211147 -7.5562543860086935 -1.9184704531132108
O 9.200912329247256 -5.7182326796448795 -1.7654294114866493
H 8.297615937015847 -6.063088553075316 -1.7014183871060329
H 9.724120054564478 -6.483421655197201 -2.0477438676548823
O 0.38770511871076785 2.040095981564763 11.360539043826394
H 0.5153907544510046 1.4964745517501892 12.152460426522916
H 1.0255378422004076 2.761799878328967 11.466722124122422
C -6.604495750702386 13.784763364926441 0.4477957463517819
O -6.141828481584152 14.789241470671449 -0.010222801815861438
O -7.067163019820619 12.780285259181433 0.9058142945194252