146

C -5.3564454929577465 1.0091607042253532 -0.0734429577464788
C -4.079135492957747 0.16955070422535368 -0.19788295774647868
C -4.333545492957747 -1.2789292957746463 0.3017270422535212
C -3.1403854929577464 -2.1745492957746464 0.7330270422535212
C -2.905235492957746 0.902300704225353 0.41966704225352136
C -2.7423854929577463 1.056130704225354 1.8024770422535212
C -1.8861754929577463 1.3499307042253532 -0.4326129577464788
C -1.5304554929577463 1.5279207042253526 2.3254170422535214
H -3.5237954929577464 0.7301007042253529 2.484817042253521
C -0.6776454929577462 1.8010507042253527 0.08546704225352131
H -1.9759254929577463 1.2426607042253535 -1.5115229577464788
C -0.4680254929577463 1.8513207042253539 1.4698070422535212
H -1.3950654929577464 1.5446707042253527 3.404047042253521
H 0.1461845070422536 1.9972507042253538 -0.6030529577464789
C -1.8679654929577463 -2.0866092957746467 -0.08765295774647863
C -0.6628654929577462 -1.814079295774647 0.5787970422535212
C -1.8438954929577462 -2.213429295774647 -1.4808029577464787
C 0.5129345070422537 -1.5763292957746469 -0.13022295774647863
H -0.6401854929577462 -1.7032692957746463 1.6609470422535213
C -0.6547954929577462 -1.9962392957746466 -2.1933129577464787
H -2.7578654929577464 -2.4351492957746466 -2.026182957746479
C 0.5308845070422537 -1.645769295774647 -1.5261029577464789
H 1.4044045070422537 -1.2610992957746463 0.41551704225352126
H -0.6795654929577464 -2.0467992957746466 -3.2793129577464786
C 1.7843245070422535 -1.2521692957746469 -2.2771629577464787
H 1.4981245070422535 -0.9384492957746469 -3.290282957746479
H 2.241984507042254 -0.38631929577464685 -1.8135029577464787
C 0.9385645070422537 2.0647807042253534 1.9815670422535212
H 1.0508945070422537 1.5807407042253532 2.9609770422535213
H 1.6053245070422537 1.5496207042253536 1.3096170422535214
C 3.9676945070422533 -1.6881692957746468 -3.314052957746479
H 4.795084507042254 -2.398849295774647 -3.4044129577464783
H 3.548404507042253 -1.4816192957746468 -4.303802957746479
H 4.307714507042253 -0.7637192957746466 -2.851282957746479
C 2.344694507042253 -3.565079295774647 -3.101282957746479
H 1.6334345070422536 -4.047909295774646 -2.4251929577464786
H 1.8561845070422536 -3.293109295774647 -4.041792957746479
H 3.1808045070422537 -4.243519295774647 -3.298122957746479
C 3.5156645070422536 -2.648489295774647 -1.1110629577464786
H 3.9311845070422535 -1.748249295774647 -0.6771029577464787
H 2.767184507042254 -3.1044092957746465 -0.45972295774647876
H 4.319224507042254 -3.371819295774647 -1.2863129577464787
C 2.963994507042253 3.381090704225353 2.401027042253521
H 3.3337945070422537 4.369820704225353 2.6912870422535216
H 3.120994507042253 2.671350704225353 3.2183370422535216
H 3.4665445070422534 3.0664207042253535 1.4881370422535212
C 1.2973745070422538 4.282440704225354 0.8488370422535213
H 1.7592145070422538 3.7367207042253527 0.02653704225352116
H 0.23311450704225378 4.4484607042253534 0.6605570422535213
H 1.7921845070422535 5.251370704225354 0.9736770422535213
C 0.7724845070422537 4.194670704225353 3.2772470422535216
H -0.2956954929577462 4.278220704225354 3.057857042253521
H 0.9298945070422537 3.612620704225354 4.190337042253521
H 1.2046345070422537 5.193640704225353 3.3918370422535213
N 2.876084507042253 -2.324759295774647 -2.4576629577464786
N 1.4527845070422536 3.504690704225353 2.1388470422535213
C -3.593905492957746 -3.637819295774647 0.8297870422535213
H -2.8952554929577463 -1.8680692957746468 1.7595270422535212
H -5.022615492957747 -1.2402792957746467 1.1579970422535213
H -4.898275492957747 -1.7933092957746464 -0.48931295774647876
H -3.883675492957746 0.07871070422535364 -1.2758929577464788
H -3.8751654929577466 -4.038529295774646 -0.1505529577464788
H -4.4603554929577465 -3.7321892957746465 1.4932570422535212
H -2.7953554929577464 -4.271929295774647 1.2313670422535212
H -5.648775492957746 1.147700704225353 0.9733970422535213
H -6.189795492957747 0.5254307042253537 -0.5943629577464788
H -5.2178854929577465 2.002970704225354 -0.5139729577464787
C 3.6710445070422537 1.0263707042253536 -0.27764295774647874
O 2.7356545070422538 1.6631507042253526 -0.7327029577464788
O 3.650814507042253 0.3883007042253537 0.7790570422535212
O 4.756604507042254 0.8696707042253538 -0.8334829577464786
O 2.3462160609838527 1.4846902535661934 -12.039130867943715
H 2.5964862130865436 0.6276776690311078 -11.662485626615764
H 1.4121756164015338 1.5816197776274667 -11.80010145646948
O -6.696209360812595 -7.248386867104411 -4.087640578593701
H -6.727552739053384 -7.219385322860859 -3.119578669430891
H -7.3471741494110505 -6.585469392465393 -4.362862689121173
O 8.408411182697876 0.04364721232886995 -5.86309647381162
H 8.109436127883635 0.7898981557991445 -5.322087413935032
H 9.324006045541157 -0.09892069129898223 -5.57968443403534
O 2.6643440440854365 7.818169578635608 -0.242533112625404
H 2.966710838396606 7.003718571870313 0.18666525197654238
H 2.859267467886606 8.510947021193914 0.4063322187308036
O 2.634189954448081 12.269708249706285 -1.3789001008057262
H 3.048085210174241 11.487948004807883 -1.7745122766595078
H 1.7826311747189107 12.340235921870834 -1.8358852607674196
O -7.657436318343629 -4.367949452153307 -0.5461870896394561
H -7.045507422069483 -3.7362475971781883 -0.13941547162057444
H -8.534053591388865 -4.00735079957005 -0.34500877904440835
O 4.517392307450469 6.080486516273359 -4.698709603223775
H 3.955392286292712 5.437468902333414 -5.156586968117108
H 4.287581291095851 5.968502684950625 -3.7640393605262026
O -1.0959532832502825 -1.7412021502708264 -10.421593510546016
H -0.7173575566990986 -2.5976662864109343 -10.172391150519148
H -1.2024068921670272 -1.2777788129925383 -9.577278176139222
O 12.123352589098774 -1.418861935405575 -6.012013337640568
H 12.571804317881895 -1.0200659715209426 -5.251211009147313
H 11.191436408695367 -1.1872420693351007 -5.882219598793798
O -8.532827188492664 7.742659709449684 4.8128225505315125
H -8.885835264822239 7.841103774947941 5.7098517701861855
H -9.231408677582124 8.102142241424888 4.245620508392868
O -5.051177747013687 12.593377496873721 -1.0276244461827364
H -5.836989807351439 12.788514182451154 -0.49528204070521475
H -5.400659875193027 12.46385654811823 -1.9220787548071163
O 4.434334806329819 8.833517995906002 6.147227945664873
H 3.799075401475434 9.239344728603406 5.538362189958246
H 5.267772556317475 8.83767677901626 5.652934342915903
O -0.25226415599893537 10.333765045396797 0.2192712597637838
H 0.324246526996705 10.74214581347085 -0.4439239886805546
H -1.1435349994067352 10.447173209323443 -0.1436844074270407
O -7.197154412507938 -10.5515512302566 0.6425895656165088
H -7.3736121170646145 -10.923749402707745 -0.2345070971445664
H -6.268787923205386 -10.773981250077151 0.8087897224235374
O -5.2440914905666105 9.801944876395341 6.650895362345288
H -5.986300776716687 10.150894412363797 6.134826613243005
H -4.505437961343869 10.386326757643392 6.423187819791741
O 4.581694863836483 -6.124593451727737 6.867937913481246
H 4.584570591836012 -6.840138838353017 7.521354998326563
H 5.4828073163584135 -5.770208854783026 6.904949393568475
O 2.3811897807210927 4.527731368843966 5.604205865005934
H 3.023362916780629 4.547377014272044 6.329598909388891
H 2.927173581044743 4.593897124853177 4.806405309217789
O 3.4465521259340757 4.461172000028197 8.67345610881705
H 3.03419693182467 4.308797183171374 9.53700255573166
H 3.2170416375134465 3.6709343369688234 8.161781098788827
O 4.226616515731377 -5.007857721423877 -11.100218019576381
H 3.803115041314145 -4.8912997679987855 -11.963947202572871
H 3.7451274949296236 -4.3996865720257485 -10.51947873195488
O -5.801871303155772 6.789970633097876 -5.829466139733924
H -5.578471995432201 7.324764200083205 -6.606032908865684
H -5.9296297769422885 7.442619775572381 -5.124704610205651
O -0.5397890652908015 7.9081826297942825 -3.3090629094296804
H -0.6099850766186976 7.897842955945875 -4.275464983122801
H -1.0746080481295657 8.671405805991919 -3.0436933874229113
O 6.414007593929095 -2.2131528608354794 8.040014165048596
H 6.892783400140685 -1.4486121077526426 7.686151873808102
H 5.496190402353941 -2.060268125280789 7.7694595406499944
O 4.433763057582628 -7.078145772228687 -2.0973072572145455
H 5.0486304753356075 -7.212217259363909 -1.3604692480000815
H 4.024307546967155 -7.947543669367011 -2.2216271091211572
O -9.632490740815946 0.16113392000546067 -5.190069478767126
H -9.816854279730373 -0.3471468031253213 -4.3859375561868825
H -8.66511583720625 0.1684632095116254 -5.245693409601461
C 4.109563162496032 -2.0144328291505826 -9.08070795852205
O 4.016412970162634 -3.2014698541732187 -8.957889392361793
O 4.20271335482943 -0.8273958041279472 -9.203526524682307