146

C -5.3564454929577465 1.0091607042253532 -0.0734429577464788
C -4.079135492957747 0.16955070422535368 -0.19788295774647868
C -4.333545492957747 -1.2789292957746463 0.3017270422535212
C -3.1403854929577464 -2.1745492957746464 0.7330270422535212
C -2.905235492957746 0.902300704225353 0.41966704225352136
C -2.7423854929577463 1.056130704225354 1.8024770422535212
C -1.8861754929577463 1.3499307042253532 -0.4326129577464788
C -1.5304554929577463 1.5279207042253526 2.3254170422535214
H -3.5237954929577464 0.7301007042253529 2.484817042253521
C -0.6776454929577462 1.8010507042253527 0.08546704225352131
H -1.9759254929577463 1.2426607042253535 -1.5115229577464788
C -0.4680254929577463 1.8513207042253539 1.4698070422535212
H -1.3950654929577464 1.5446707042253527 3.404047042253521
H 0.1461845070422536 1.9972507042253538 -0.6030529577464789
C -1.8679654929577463 -2.0866092957746467 -0.08765295774647863
C -0.6628654929577462 -1.814079295774647 0.5787970422535212
C -1.8438954929577462 -2.213429295774647 -1.4808029577464787
C 0.5129345070422537 -1.5763292957746469 -0.13022295774647863
H -0.6401854929577462 -1.7032692957746463 1.6609470422535213
C -0.6547954929577462 -1.9962392957746466 -2.1933129577464787
H -2.7578654929577464 -2.4351492957746466 -2.026182957746479
C 0.5308845070422537 -1.645769295774647 -1.5261029577464789
H 1.4044045070422537 -1.2610992957746463 0.41551704225352126
H -0.6795654929577464 -2.0467992957746466 -3.2793129577464786
C 1.7843245070422535 -1.2521692957746469 -2.2771629577464787
H 1.4981245070422535 -0.9384492957746469 -3.290282957746479
H 2.241984507042254 -0.38631929577464685 -1.8135029577464787
C 0.9385645070422537 2.0647807042253534 1.9815670422535212
H 1.0508945070422537 1.5807407042253532 2.9609770422535213
H 1.6053245070422537 1.5496207042253536 1.3096170422535214
C 3.9676945070422533 -1.6881692957746468 -3.314052957746479
H 4.795084507042254 -2.398849295774647 -3.4044129577464783
H 3.548404507042253 -1.4816192957746468 -4.303802957746479
H 4.307714507042253 -0.7637192957746466 -2.851282957746479
C 2.344694507042253 -3.565079295774647 -3.101282957746479
H 1.6334345070422536 -4.047909295774646 -2.4251929577464786
H 1.8561845070422536 -3.293109295774647 -4.041792957746479
H 3.1808045070422537 -4.243519295774647 -3.298122957746479
C 3.5156645070422536 -2.648489295774647 -1.1110629577464786
H 3.9311845070422535 -1.748249295774647 -0.6771029577464787
H 2.767184507042254 -3.1044092957746465 -0.45972295774647876
H 4.319224507042254 -3.371819295774647 -1.2863129577464787
C 2.963994507042253 3.381090704225353 2.401027042253521
H 3.3337945070422537 4.369820704225353 2.6912870422535216
H 3.120994507042253 2.671350704225353 3.2183370422535216
H 3.4665445070422534 3.0664207042253535 1.4881370422535212
C 1.2973745070422538 4.282440704225354 0.8488370422535213
H 1.7592145070422538 3.7367207042253527 0.02653704225352116
H 0.23311450704225378 4.4484607042253534 0.6605570422535213
H 1.7921845070422535 5.251370704225354 0.9736770422535213
C 0.7724845070422537 4.194670704225353 3.2772470422535216
H -0.2956954929577462 4.278220704225354 3.057857042253521
H 0.9298945070422537 3.612620704225354 4.190337042253521
H 1.2046345070422537 5.193640704225353 3.3918370422535213
N 2.876084507042253 -2.324759295774647 -2.4576629577464786
N 1.4527845070422536 3.504690704225353 2.1388470422535213
C -3.593905492957746 -3.637819295774647 0.8297870422535213
H -2.8952554929577463 -1.8680692957746468 1.7595270422535212
H -5.022615492957747 -1.2402792957746467 1.1579970422535213
H -4.898275492957747 -1.7933092957746464 -0.48931295774647876
H -3.883675492957746 0.07871070422535364 -1.2758929577464788
H -3.8751654929577466 -4.038529295774646 -0.1505529577464788
H -4.4603554929577465 -3.7321892957746465 1.4932570422535212
H -2.7953554929577464 -4.271929295774647 1.2313670422535212
H -5.648775492957746 1.147700704225353 0.9733970422535213
H -6.189795492957747 0.5254307042253537 -0.5943629577464788
H -5.2178854929577465 2.002970704225354 -0.5139729577464787
C 3.6710445070422537 1.0263707042253536 -0.27764295774647874
O 2.7356545070422538 1.6631507042253526 -0.7327029577464788
O 3.650814507042253 0.3883007042253537 0.7790570422535212
O 4.756604507042254 0.8696707042253538 -0.8334829577464786
O -1.9930325895155645 -5.191044678380162 -5.2152750290953
H -2.060604012466845 -5.559942478656865 -6.108760268285823
H -2.7418355227248288 -4.578728239068424 -5.1576149071235555
O 9.927638171165635 -0.0004330571847543929 4.556076263636649
H 10.058002831167345 0.631946586084466 3.83353325515803
H 9.645359172121118 0.5507100000203176 5.3014096397128
O -9.52865456295716 -1.2912643867012905 7.845066029407185
H -10.386275099881638 -0.9803160868275334 8.171815974091178
H -9.147428107422988 -0.5132287375976621 7.411143383507312
O -5.393542351774028 2.2439089783201416 12.991155278741953
H -5.292063618461643 2.7228921759877664 13.827363697700658
H -4.576436646002535 1.7284949824630753 12.915997958603983
O -8.479796392548424 3.3238775609143127 3.177332958633636
H -8.785269716196144 3.544197465787671 2.2845213631913435
H -7.768693786253242 2.6823813151946734 3.029760622649533
O 1.0542876205852882 -2.3246799177183464 -8.967966343819564
H 1.0870926386486746 -2.293783528229823 -9.935921198555276
H 1.8818721218015206 -1.9027958665494558 -8.692140882674286
O 13.018735275188217 -5.534274963212882 -1.1561961232651097
H 13.552005719244441 -5.610623782590219 -1.9616530421476568
H 12.137600072043627 -5.830305077439976 -1.4299275053717941
O -2.1778651835848706 1.3732129666314838 12.664931269150827
H -1.5029955006587743 0.6972350449036173 12.501921707149988
H -2.6710575911232364 1.4172076305473031 11.831992097906344
O 6.598735969100023 -7.072980502754307 -3.170141154401225
H 6.372974360043138 -7.090633127838629 -2.227969494031588
H 6.302894845098669 -6.19875084561672 -3.465374079785085
O 0.016513079254248497 -6.88864232058762 -1.616150832417484
H -0.8419147665745252 -7.3359155946127155 -1.6610463639172215
H 0.6557218200176957 -7.587954725262577 -1.819464114569286
O -12.406298101864806 -0.84074229765476 1.766965422957717
H -11.740081467087304 -1.3348722081089708 2.2679228902543485
H -12.368396794114737 0.05124145010536463 2.1436488827786087
O 5.486978159099932 11.341893276420752 -3.524335497715366
H 5.471790641069241 11.606824783287182 -4.456294720463632
H 4.888654696797078 10.580562105843862 -3.4876499765122277
O 3.088186524015283 2.08220851575419 -5.356374677433875
H 3.1289159101514388 1.9063218673039142 -6.308410580591893
H 2.6860832094924447 2.9618970302915346 -5.297868385970253
O -2.0607252414230803 3.9800631130486934 -7.686306844795547
H -1.535113376006747 4.780923186522662 -7.832329673657451
H -2.5301651384497794 3.8521683629993184 -8.524299124168913
O -5.9868312553293865 -12.329766659036881 -0.8119914870114342
H -5.5591830939934335 -12.383154163001896 0.05589916360439284
H -5.560163520804753 -11.570550865736692 -1.236853779783083
O -0.04007225832139616 0.9480999862632163 -8.206733487868203
H 0.25914296239191664 0.42085395646449547 -7.450790875856568
H -0.4054258680406395 0.29236225380226943 -8.8195031920737
O -9.195456544144362 2.503237565808744 -6.381165705830753
H -10.066156271650767 2.8743285163932377 -6.1734619557091674
H -8.60423474414066 3.270825892436826 -6.366102893188884
O 1.9624685652554197 -3.2590654455864057 -5.687366552121153
H 1.789146540115738 -3.6864690486756166 -6.539571335355699
H 2.9260122130914565 -3.1582647188427133 -5.667750321525888
O -5.155272940929554 -5.303765767235686 9.427073370237771
H -5.163753997568207 -6.259014203194562 9.264605360536127
H -4.212953116816626 -5.080975179921547 9.463946769701339
O -7.372793184823103 7.225636244049079 7.404549447633455
H -7.995440591359378 6.722558955375508 7.950617946683255
H -7.94109716168345 7.706779467457053 6.78447386131087
O -0.9021081087592454 -3.513287455367218 -6.327249836461654
H -0.5787911416480791 -3.038293094757668 -5.546984591133398
H -1.6214542014996118 -2.955469251595927 -6.659427491791655
O 4.1709279152273595 1.7220786807505661 6.524489130111859
H 3.8614368437680473 2.5218797385034377 6.073378388049163
H 5.128904094002436 1.7270424646986815 6.378821885858327
O 12.568303135321065 1.4836861663558323 0.8147154122652873
H 12.907710247011503 2.1295940233757875 0.17708447694780638
H 12.47450941076808 0.6702763540222962 0.296517420437838
O 2.8736458153826634 -10.627303572019224 5.4319714501337835
H 2.8097677574538107 -10.645743578248222 6.398691118282475
H 2.8584776956277134 -9.683174162711271 5.214367380955579
C -5.098291617737644 -10.92911012554704 3.665640278430903
O -4.605209404135367 -10.3837754159335 4.610255672345163
O -5.591373831339919 -11.474444835160583 2.721024884516642