146

C -5.3564454929577465 1.0091607042253532 -0.0734429577464788
C -4.079135492957747 0.16955070422535368 -0.19788295774647868
C -4.333545492957747 -1.2789292957746463 0.3017270422535212
C -3.1403854929577464 -2.1745492957746464 0.7330270422535212
C -2.905235492957746 0.902300704225353 0.41966704225352136
C -2.7423854929577463 1.056130704225354 1.8024770422535212
C -1.8861754929577463 1.3499307042253532 -0.4326129577464788
C -1.5304554929577463 1.5279207042253526 2.3254170422535214
H -3.5237954929577464 0.7301007042253529 2.484817042253521
C -0.6776454929577462 1.8010507042253527 0.08546704225352131
H -1.9759254929577463 1.2426607042253535 -1.5115229577464788
C -0.4680254929577463 1.8513207042253539 1.4698070422535212
H -1.3950654929577464 1.5446707042253527 3.404047042253521
H 0.1461845070422536 1.9972507042253538 -0.6030529577464789
C -1.8679654929577463 -2.0866092957746467 -0.08765295774647863
C -0.6628654929577462 -1.814079295774647 0.5787970422535212
C -1.8438954929577462 -2.213429295774647 -1.4808029577464787
C 0.5129345070422537 -1.5763292957746469 -0.13022295774647863
H -0.6401854929577462 -1.7032692957746463 1.6609470422535213
C -0.6547954929577462 -1.9962392957746466 -2.1933129577464787
H -2.7578654929577464 -2.4351492957746466 -2.026182957746479
C 0.5308845070422537 -1.645769295774647 -1.5261029577464789
H 1.4044045070422537 -1.2610992957746463 0.41551704225352126
H -0.6795654929577464 -2.0467992957746466 -3.2793129577464786
C 1.7843245070422535 -1.2521692957746469 -2.2771629577464787
H 1.4981245070422535 -0.9384492957746469 -3.290282957746479
H 2.241984507042254 -0.38631929577464685 -1.8135029577464787
C 0.9385645070422537 2.0647807042253534 1.9815670422535212
H 1.0508945070422537 1.5807407042253532 2.9609770422535213
H 1.6053245070422537 1.5496207042253536 1.3096170422535214
C 3.9676945070422533 -1.6881692957746468 -3.314052957746479
H 4.795084507042254 -2.398849295774647 -3.4044129577464783
H 3.548404507042253 -1.4816192957746468 -4.303802957746479
H 4.307714507042253 -0.7637192957746466 -2.851282957746479
C 2.344694507042253 -3.565079295774647 -3.101282957746479
H 1.6334345070422536 -4.047909295774646 -2.4251929577464786
H 1.8561845070422536 -3.293109295774647 -4.041792957746479
H 3.1808045070422537 -4.243519295774647 -3.298122957746479
C 3.5156645070422536 -2.648489295774647 -1.1110629577464786
H 3.9311845070422535 -1.748249295774647 -0.6771029577464787
H 2.767184507042254 -3.1044092957746465 -0.45972295774647876
H 4.319224507042254 -3.371819295774647 -1.2863129577464787
C 2.963994507042253 3.381090704225353 2.401027042253521
H 3.3337945070422537 4.369820704225353 2.6912870422535216
H 3.120994507042253 2.671350704225353 3.2183370422535216
H 3.4665445070422534 3.0664207042253535 1.4881370422535212
C 1.2973745070422538 4.282440704225354 0.8488370422535213
H 1.7592145070422538 3.7367207042253527 0.02653704225352116
H 0.23311450704225378 4.4484607042253534 0.6605570422535213
H 1.7921845070422535 5.251370704225354 0.9736770422535213
C 0.7724845070422537 4.194670704225353 3.2772470422535216
H -0.2956954929577462 4.278220704225354 3.057857042253521
H 0.9298945070422537 3.612620704225354 4.190337042253521
H 1.2046345070422537 5.193640704225353 3.3918370422535213
N 2.876084507042253 -2.324759295774647 -2.4576629577464786
N 1.4527845070422536 3.504690704225353 2.1388470422535213
C -3.593905492957746 -3.637819295774647 0.8297870422535213
H -2.8952554929577463 -1.8680692957746468 1.7595270422535212
H -5.022615492957747 -1.2402792957746467 1.1579970422535213
H -4.898275492957747 -1.7933092957746464 -0.48931295774647876
H -3.883675492957746 0.07871070422535364 -1.2758929577464788
H -3.8751654929577466 -4.038529295774646 -0.1505529577464788
H -4.4603554929577465 -3.7321892957746465 1.4932570422535212
H -2.7953554929577464 -4.271929295774647 1.2313670422535212
H -5.648775492957746 1.147700704225353 0.9733970422535213
H -6.189795492957747 0.5254307042253537 -0.5943629577464788
H -5.2178854929577465 2.002970704225354 -0.5139729577464787
C 3.6710445070422537 1.0263707042253536 -0.27764295774647874
O 2.7356545070422538 1.6631507042253526 -0.7327029577464788
O 3.650814507042253 0.3883007042253537 0.7790570422535212
O 4.756604507042254 0.8696707042253538 -0.8334829577464786
O -4.539910453423861 -0.07699519552553004 -8.044075645951862
H -4.4889311164414565 -0.12608192057996181 -7.077660125834214
H -3.7355751826647525 0.4005714218151037 -8.29693300201392
O 0.4922641818014346 -4.108974708921143 5.711974664498612
H 0.6563508133562633 -4.015687785027914 4.76153240740167
H 1.207955420667773 -4.68639092370161 6.01748818272418
O 6.792304462599741 6.722773054514002 6.38843547123541
H 7.01121698820841 5.806284785823014 6.16239583669441
H 5.944344549773737 6.653311228192387 6.852225278393978
O 3.880612609815363 7.569069106499779 -3.7398554627602243
H 3.9956455805023 7.710137930757033 -2.7881021547136404
H 4.635222092379401 7.013710249388696 -3.987045699122235
O 9.562571941743432 -10.383028931777185 0.5293240882249948
H 9.734379253983867 -11.319009782759371 0.7120518938687477
H 9.051222572698432 -10.395247319772643 -0.293679239880106
O 5.545830648733997 -2.775620912487085 -8.6867798586751
H 5.301869574878633 -3.6629777393208225 -8.383385374191782
H 5.8733692479564 -2.91805879719068 -9.58755278195854
O -5.818176029851002 -7.961904732193199 1.3277591284735846
H -6.001464118594838 -7.168365635526724 1.8528005892044364
H -6.134144614931037 -8.689192328024593 1.8846958847505562
O 7.729768322409608 -8.347502889492613 -12.828172747203693
H 7.799355582374421 -8.218703238689766 -13.786053543599392
H 7.140572328795934 -9.111362412651294 -12.736911286063807
O 7.902004279700342 0.8803250555849802 13.242718877305057
H 8.608197490918693 1.5017149122920104 13.475384197691945
H 7.614081654016399 0.5229935649465931 14.096168765533658
O 5.4559065612865165 -3.4459254854986225 2.538933240948902
H 5.907251209654826 -2.6858595938044196 2.935865483998497
H 4.768638521077429 -3.6727125850679228 3.1832873335688707
O 0.9455324253969053 -6.323628081274423 -0.42420497096381493
H 1.3141646016263904 -6.393754076318485 -1.3176029899718018
H 1.2945022389069853 -7.102417629327393 0.03478179725743913
O 3.1824039426555655 7.368224519321526 6.7096383977337535
H 2.639327410505394 7.891283187229051 6.100996576089408
H 2.579132965142965 7.155052767408758 7.437363535527848
O 0.028305497571759375 -7.994949905540754 3.7106745946639856
H 0.7448409514148739 -8.230946200601933 4.318827576242832
H -0.3925457391289262 -8.843080726389488 3.504470104911803
O -7.207933810560558 -1.8826079398062125 -0.9618805826060882
H -7.60654261044531 -1.8839911227313695 -0.07866120535067811
H -7.680202291024933 -1.1782475562529964 -1.4307098444281683
O 9.870342031097708 -3.2204369708484952 6.1021884841053575
H 9.979240905655649 -3.5284411388959342 7.0144613733689924
H 9.592302437034792 -4.013104905055297 5.619142446430221
O 9.049743511891673 3.085966593437146 -5.875567513019608
H 9.033492466172678 2.385662302619533 -5.20603247982457
H 8.168775023764605 3.046316519012853 -6.2771697276863785
O 0.444521389691956 8.904935633280843 -6.2569450992005216
H -0.18845096413505846 9.620858287912117 -6.417469579503063
H 1.2545559183193022 9.206031265042162 -6.695291340504953
O 8.854120239651804 -1.0298891072097884 10.36940539501355
H 9.122808301376354 -0.7395763118690466 11.253991492150595
H 7.94893899102954 -0.6962193676467177 10.278447402827311
O -12.282152572704284 6.641918429770303 -5.43537065884555
H -13.215218468083574 6.811534089416272 -5.236408552446107
H -11.807123830250168 7.3063897086344065 -4.914038175964262
O 1.1481009297253184 -4.308234160355228 -9.463227405250123
H 2.080198883168931 -4.4789716966154725 -9.665735320646071
H 0.9022378665898063 -5.030545242458544 -8.865916766506462
O -10.691515762906135 -4.375442348811064 8.255879488673044
H -11.574024588653986 -4.7749620333559095 8.23286751269656
H -10.424447524427691 -4.451161097189059 9.184266892422194
O 8.678915902813287 0.9578821161158934 -0.7876765664989616
H 8.09420086314428 1.640168122101838 -1.1503906209835129
H 8.396440058069594 0.14581171586349512 -1.2345669406068016
O -8.856929421872973 8.68180598903147 4.363623837374895
H -8.495145348286117 9.440078941672889 3.880817695852893
H -8.217961658741022 7.972398774198993 4.1980232772255475
O 7.406591871701066 -5.859183893786946 3.865653152081255
H 7.451441199810101 -6.020388370838211 4.820100118259469
H 8.220817566596818 -5.370716869424841 3.672266419903575
C -3.5995149790089496 -6.6348735115300075 -8.971636175464845
O -3.6625489795958144 -6.362085203836566 -10.135436635705243
O -3.536480978422085 -6.907661819223449 -7.807835715224447