146

C -5.3564454929577465 1.0091607042253532 -0.0734429577464788
C -4.079135492957747 0.16955070422535368 -0.19788295774647868
C -4.333545492957747 -1.2789292957746463 0.3017270422535212
C -3.1403854929577464 -2.1745492957746464 0.7330270422535212
C -2.905235492957746 0.902300704225353 0.41966704225352136
C -2.7423854929577463 1.056130704225354 1.8024770422535212
C -1.8861754929577463 1.3499307042253532 -0.4326129577464788
C -1.5304554929577463 1.5279207042253526 2.3254170422535214
H -3.5237954929577464 0.7301007042253529 2.484817042253521
C -0.6776454929577462 1.8010507042253527 0.08546704225352131
H -1.9759254929577463 1.2426607042253535 -1.5115229577464788
C -0.4680254929577463 1.8513207042253539 1.4698070422535212
H -1.3950654929577464 1.5446707042253527 3.404047042253521
H 0.1461845070422536 1.9972507042253538 -0.6030529577464789
C -1.8679654929577463 -2.0866092957746467 -0.08765295774647863
C -0.6628654929577462 -1.814079295774647 0.5787970422535212
C -1.8438954929577462 -2.213429295774647 -1.4808029577464787
C 0.5129345070422537 -1.5763292957746469 -0.13022295774647863
H -0.6401854929577462 -1.7032692957746463 1.6609470422535213
C -0.6547954929577462 -1.9962392957746466 -2.1933129577464787
H -2.7578654929577464 -2.4351492957746466 -2.026182957746479
C 0.5308845070422537 -1.645769295774647 -1.5261029577464789
H 1.4044045070422537 -1.2610992957746463 0.41551704225352126
H -0.6795654929577464 -2.0467992957746466 -3.2793129577464786
C 1.7843245070422535 -1.2521692957746469 -2.2771629577464787
H 1.4981245070422535 -0.9384492957746469 -3.290282957746479
H 2.241984507042254 -0.38631929577464685 -1.8135029577464787
C 0.9385645070422537 2.0647807042253534 1.9815670422535212
H 1.0508945070422537 1.5807407042253532 2.9609770422535213
H 1.6053245070422537 1.5496207042253536 1.3096170422535214
C 3.9676945070422533 -1.6881692957746468 -3.314052957746479
H 4.795084507042254 -2.398849295774647 -3.4044129577464783
H 3.548404507042253 -1.4816192957746468 -4.303802957746479
H 4.307714507042253 -0.7637192957746466 -2.851282957746479
C 2.344694507042253 -3.565079295774647 -3.101282957746479
H 1.6334345070422536 -4.047909295774646 -2.4251929577464786
H 1.8561845070422536 -3.293109295774647 -4.041792957746479
H 3.1808045070422537 -4.243519295774647 -3.298122957746479
C 3.5156645070422536 -2.648489295774647 -1.1110629577464786
H 3.9311845070422535 -1.748249295774647 -0.6771029577464787
H 2.767184507042254 -3.1044092957746465 -0.45972295774647876
H 4.319224507042254 -3.371819295774647 -1.2863129577464787
C 2.963994507042253 3.381090704225353 2.401027042253521
H 3.3337945070422537 4.369820704225353 2.6912870422535216
H 3.120994507042253 2.671350704225353 3.2183370422535216
H 3.4665445070422534 3.0664207042253535 1.4881370422535212
C 1.2973745070422538 4.282440704225354 0.8488370422535213
H 1.7592145070422538 3.7367207042253527 0.02653704225352116
H 0.23311450704225378 4.4484607042253534 0.6605570422535213
H 1.7921845070422535 5.251370704225354 0.9736770422535213
C 0.7724845070422537 4.194670704225353 3.2772470422535216
H -0.2956954929577462 4.278220704225354 3.057857042253521
H 0.9298945070422537 3.612620704225354 4.190337042253521
H 1.2046345070422537 5.193640704225353 3.3918370422535213
N 2.876084507042253 -2.324759295774647 -2.4576629577464786
N 1.4527845070422536 3.504690704225353 2.1388470422535213
C -3.593905492957746 -3.637819295774647 0.8297870422535213
H -2.8952554929577463 -1.8680692957746468 1.7595270422535212
H -5.022615492957747 -1.2402792957746467 1.1579970422535213
H -4.898275492957747 -1.7933092957746464 -0.48931295774647876
H -3.883675492957746 0.07871070422535364 -1.2758929577464788
H -3.8751654929577466 -4.038529295774646 -0.1505529577464788
H -4.4603554929577465 -3.7321892957746465 1.4932570422535212
H -2.7953554929577464 -4.271929295774647 1.2313670422535212
H -5.648775492957746 1.147700704225353 0.9733970422535213
H -6.189795492957747 0.5254307042253537 -0.5943629577464788
H -5.2178854929577465 2.002970704225354 -0.5139729577464787
C 3.6710445070422537 1.0263707042253536 -0.27764295774647874
O 2.7356545070422538 1.6631507042253526 -0.7327029577464788
O 3.650814507042253 0.3883007042253537 0.7790570422535212
O 4.756604507042254 0.8696707042253538 -0.8334829577464786
O 1.972723944124397 4.115284135621414 -7.794019145276369
H 1.3003550292283625 3.9935560497468816 -8.481092410868078
H 2.041247450655627 3.24352338236306 -7.376527034654993
O 2.3486082183478683 -6.490867405509379 -4.568325389464912
H 1.9278528806147637 -6.616966455295037 -3.704594336235808
H 1.6942671805001475 -5.988072581057102 -5.0762595534983745
O -2.711249457762669 3.8431400425048956 8.93835134995629
H -2.4057234121956546 3.703370225527837 9.847243857705354
H -3.470018592113407 3.246650186031513 8.852146963867217
O 10.326002563464893 2.9334428259279512 -1.5514829456922536
H 9.835598443996227 3.5209609353127562 -0.9570978620528112
H 9.725338993327556 2.8040736981019396 -2.300768504458339
O 7.634514333236677 -10.326110793162513 -5.203397873127467
H 7.884716694191542 -11.105806327904165 -4.685284942796113
H 7.938255697464281 -10.533480450094105 -6.099891572682141
O -3.416946607141891 -4.819855430522604 -8.044544163247037
H -2.967883800856069 -5.514498078697516 -7.539785266101825
H -2.7278523023053403 -4.154627105427338 -8.191453178738861
O -7.206272811749258 0.7933003235834413 5.263293633444788
H -7.622638998969274 1.6557656122746418 5.410806957733385
H -6.749254609157868 0.8960443582438562 4.41503661452786
O 4.840128149508253 1.3919034764546905 9.489676686392723
H 5.38549829586443 0.664792327725659 9.825605455267006
H 3.9721504445533644 1.2388376126211722 9.892352100752905
O -8.170008914011264 -5.731008237818257 5.283136447329029
H -8.698732530427616 -4.9192928691727085 5.259966323284539
H -7.2803274288962365 -5.424317760262633 5.514155386639687
O 6.890536542969311 1.2002150641052336 1.605617547986238
H 6.284726275941207 0.48016469639490467 1.8368938875101057
H 7.701742912197773 0.9887982525932695 2.091631027874698
O 4.096113033556829 -14.662070227882616 -1.153140584485734
H 4.703108998458595 -15.216248638402718 -1.6663749800657541
H 4.5840500923114424 -13.834295726450577 -1.0279657236995559
O 5.239377041634571 -5.572403214804126 11.981607907918566
H 5.05819795671807 -5.303826835342926 12.894848415388713
H 5.772682236361073 -4.845985060519059 11.62542792714648
O 2.6075760431628856 2.1461780956574263 -2.546955665072096
H 2.215856361338103 2.6334842038010633 -3.287263577185019
H 2.9529870812456855 1.3381290124692442 -2.9552568262623398
O -7.5863006309461305 -4.3308248591359515 -2.8538287455152798
H -7.633369118767954 -4.465320271242279 -3.8122977843874373
H -6.864337953098022 -4.91202560334859 -2.5710964852034035
O 3.8870961257678602 -0.9308416300666558 -12.124621756868033
H 3.7643845729837953 -1.293448484179295 -13.014804603851651
H 4.560031167284589 -1.5048156533816657 -11.728800844385558
O -6.805632144535549 -6.595920088109285 7.255274398364216
H -7.664532425598521 -6.191411291737967 7.449259701282186
H -6.166615112742229 -6.002086980251076 7.677152837478515
O 6.612816932355662 -11.682986021503396 -2.957304626285839
H 5.863231300372179 -11.972307095474402 -3.4989521624015216
H 6.474063219980678 -12.129000579724096 -2.108316778635854
O 1.450787446824033 11.260494074860944 1.9005472951353553
H 2.1695531025709625 11.590718785485134 2.4602748444947355
H 1.7892667308268164 11.365588628815969 0.9986887400781013
O -6.038854645345971 8.745771916929996 -7.367786982392011
H -6.102094796955596 7.837813502269137 -7.70032202922307
H -6.580309578845277 8.738971887861915 -6.564206084850304
O 4.340313755756089 8.916807233077972 -9.697617779068748
H 5.080744334302298 9.083572324426779 -10.300045633306208
H 4.650022655523005 9.259236824202409 -8.845688018567616
O 4.668700673334261 -3.758233307409247 -8.7652875205067
H 4.506696770811949 -3.9876168360560493 -7.837868904533803
H 5.022133315429021 -2.8568801456852477 -8.725165336467626
O -11.360877177579791 -4.459185445426854 -2.967690595138622
H -10.891235045838503 -4.651756359184342 -2.1422694491966827
H -10.971131648933211 -5.073679505750449 -3.607579192495239
O 2.157962389449855 -6.521632603393625 -1.5816553699193847
H 3.073914089314377 -6.560768034907338 -1.267858846013321
H 2.1766653368503337 -5.844522542333681 -2.2745724712164543
O -1.7889334506823233 -0.7219677639434636 -4.395915384222674
H -1.9045773402654433 -0.456979806894277 -3.47105040471432
H -0.8278918799782249 -0.7261241751252735 -4.519785347993906
C 4.888516125968375 -6.571083780196044 -1.055797805945239
O 5.290644480051029 -5.50518774917813 -1.423189552182186
O 4.486387771885722 -7.636979811213959 -0.6884060597082935