146

C -5.3564454929577465 1.0091607042253532 -0.0734429577464788
C -4.079135492957747 0.16955070422535368 -0.19788295774647868
C -4.333545492957747 -1.2789292957746463 0.3017270422535212
C -3.1403854929577464 -2.1745492957746464 0.7330270422535212
C -2.905235492957746 0.902300704225353 0.41966704225352136
C -2.7423854929577463 1.056130704225354 1.8024770422535212
C -1.8861754929577463 1.3499307042253532 -0.4326129577464788
C -1.5304554929577463 1.5279207042253526 2.3254170422535214
H -3.5237954929577464 0.7301007042253529 2.484817042253521
C -0.6776454929577462 1.8010507042253527 0.08546704225352131
H -1.9759254929577463 1.2426607042253535 -1.5115229577464788
C -0.4680254929577463 1.8513207042253539 1.4698070422535212
H -1.3950654929577464 1.5446707042253527 3.404047042253521
H 0.1461845070422536 1.9972507042253538 -0.6030529577464789
C -1.8679654929577463 -2.0866092957746467 -0.08765295774647863
C -0.6628654929577462 -1.814079295774647 0.5787970422535212
C -1.8438954929577462 -2.213429295774647 -1.4808029577464787
C 0.5129345070422537 -1.5763292957746469 -0.13022295774647863
H -0.6401854929577462 -1.7032692957746463 1.6609470422535213
C -0.6547954929577462 -1.9962392957746466 -2.1933129577464787
H -2.7578654929577464 -2.4351492957746466 -2.026182957746479
C 0.5308845070422537 -1.645769295774647 -1.5261029577464789
H 1.4044045070422537 -1.2610992957746463 0.41551704225352126
H -0.6795654929577464 -2.0467992957746466 -3.2793129577464786
C 1.7843245070422535 -1.2521692957746469 -2.2771629577464787
H 1.4981245070422535 -0.9384492957746469 -3.290282957746479
H 2.241984507042254 -0.38631929577464685 -1.8135029577464787
C 0.9385645070422537 2.0647807042253534 1.9815670422535212
H 1.0508945070422537 1.5807407042253532 2.9609770422535213
H 1.6053245070422537 1.5496207042253536 1.3096170422535214
C 3.9676945070422533 -1.6881692957746468 -3.314052957746479
H 4.795084507042254 -2.398849295774647 -3.4044129577464783
H 3.548404507042253 -1.4816192957746468 -4.303802957746479
H 4.307714507042253 -0.7637192957746466 -2.851282957746479
C 2.344694507042253 -3.565079295774647 -3.101282957746479
H 1.6334345070422536 -4.047909295774646 -2.4251929577464786
H 1.8561845070422536 -3.293109295774647 -4.041792957746479
H 3.1808045070422537 -4.243519295774647 -3.298122957746479
C 3.5156645070422536 -2.648489295774647 -1.1110629577464786
H 3.9311845070422535 -1.748249295774647 -0.6771029577464787
H 2.767184507042254 -3.1044092957746465 -0.45972295774647876
H 4.319224507042254 -3.371819295774647 -1.2863129577464787
C 2.963994507042253 3.381090704225353 2.401027042253521
H 3.3337945070422537 4.369820704225353 2.6912870422535216
H 3.120994507042253 2.671350704225353 3.2183370422535216
H 3.4665445070422534 3.0664207042253535 1.4881370422535212
C 1.2973745070422538 4.282440704225354 0.8488370422535213
H 1.7592145070422538 3.7367207042253527 0.02653704225352116
H 0.23311450704225378 4.4484607042253534 0.6605570422535213
H 1.7921845070422535 5.251370704225354 0.9736770422535213
C 0.7724845070422537 4.194670704225353 3.2772470422535216
H -0.2956954929577462 4.278220704225354 3.057857042253521
H 0.9298945070422537 3.612620704225354 4.190337042253521
H 1.2046345070422537 5.193640704225353 3.3918370422535213
N 2.876084507042253 -2.324759295774647 -2.4576629577464786
N 1.4527845070422536 3.504690704225353 2.1388470422535213
C -3.593905492957746 -3.637819295774647 0.8297870422535213
H -2.8952554929577463 -1.8680692957746468 1.7595270422535212
H -5.022615492957747 -1.2402792957746467 1.1579970422535213
H -4.898275492957747 -1.7933092957746464 -0.48931295774647876
H -3.883675492957746 0.07871070422535364 -1.2758929577464788
H -3.8751654929577466 -4.038529295774646 -0.1505529577464788
H -4.4603554929577465 -3.7321892957746465 1.4932570422535212
H -2.7953554929577464 -4.271929295774647 1.2313670422535212
H -5.648775492957746 1.147700704225353 0.9733970422535213
H -6.189795492957747 0.5254307042253537 -0.5943629577464788
H -5.2178854929577465 2.002970704225354 -0.5139729577464787
C 3.6710445070422537 1.0263707042253536 -0.27764295774647874
O 2.7356545070422538 1.6631507042253526 -0.7327029577464788
O 3.650814507042253 0.3883007042253537 0.7790570422535212
O 4.756604507042254 0.8696707042253538 -0.8334829577464786
O -5.577687526052804 5.899622973286251 -6.139382100317078
H -5.544636544463793 6.029158362227962 -5.179644858918307
H -5.0215032149828325 5.120503811312856 -6.289696064623444
O 6.633441516714058 -2.920326159994246 -2.8475609443172987
H 5.91421895311851 -2.8633567417795205 -2.200690983426143
H 6.5612345219692 -3.820383422330113 -3.1991928807599086
O 1.2955140753267873 4.563502801623658 -7.811432119996056
H 1.8434723436361704 5.316805788039176 -7.544516957914832
H 0.4747813336395348 4.971061844853908 -8.12648027076633
O 10.529942804185934 0.6572068880406885 -1.934743507612973
H 10.708545225523526 0.4026240447401488 -1.0169983861934355
H 10.498682359798954 -0.18672103951725472 -2.4098965166579367
O 0.35845919105016666 -11.794768857206687 2.2725434507228375
H 0.617251835213751 -11.11305723443271 2.910715048023822
H 1.0163033709492062 -12.495026133513473 2.3984113427857396
O -8.045800006367342 -0.858988909089131 6.948044876266957
H -8.79234072561149 -0.2729924664716141 7.143627290225997
H -7.495634574505662 -0.8108804489709462 7.744264392449214
O 1.9260894759955267 -1.3214542865591166 -10.286622313336977
H 1.4737026937936717 -1.3608192688917553 -11.142638641659635
H 2.848461122019279 -1.1349218975416333 -10.517702729553635
O 6.612318922218991 -5.2849835424059854 -1.0069636062422567
H 6.927319116886077 -6.2012947767863995 -0.9961953191017274
H 7.180763364315233 -4.849725750860844 -1.6599440925120517
O -7.884743805195345 -5.677020293070375 5.36841542573114
H -7.879200546446635 -5.7319701438977635 4.400987318285169
H -7.298481666692648 -6.396468431162589 5.647078350882461
O -3.173351088288282 8.450802980536164 4.836492194894234
H -3.5699619557405873 8.875490695929098 5.611932406073058
H -3.9184561287990842 8.003499244191831 4.407890059624478
O -3.347750201794478 11.80812418491459 0.9286682641510622
H -3.143602800432131 12.664963386706999 1.332546683590317
H -3.316439115361248 11.984813612401329 -0.023572465066491466
O 5.153401161567092 -3.1935628560571416 2.137103563151207
H 5.241854270300652 -3.8340951500822484 2.8588111111000316
H 6.0616277395451155 -3.0668222635601916 1.824016914493284
O 7.9180108050958795 -6.351861301861082 -5.495151686828777
H 7.922374920594193 -6.328794077265913 -4.526432834660928
H 8.793753841157184 -6.697121748664469 -5.725002296928592
O 4.337668012730157 4.4110882042937 8.942855951666637
H 4.902270406064976 3.7274619555948494 8.55189988453053
H 3.6288019505798492 3.9107054496086664 9.374235076156141
O -5.499278137875648 1.6212705697894416 -6.7533536879900975
H -5.413787852083302 1.5810304507321546 -5.788968131921675
H -4.914143875205168 0.9166856810793131 -7.069802694230296
O -5.850980131832449 -0.7228278752904086 -2.900050770627941
H -5.671223195975408 -1.6224438159193924 -2.588047629173375
H -5.3212958561888115 -0.16162667905856232 -2.314004927895634
O 1.735611900992339 -3.981081488023123 6.838923111302222
H 1.4813833182513036 -3.2923375482724184 7.47135253034767
H 2.6272299555994425 -4.237821617518521 7.1183219210801605
O 9.984084197162307 2.004682251568534 -0.6244375475404392
H 10.41603052411353 1.3403314374436883 -0.06673895214593722
H 9.424913433617437 2.50038175785213 -0.007532367657137495
O -8.234133311748646 -0.007878821611525977 -5.9699358736900665
H -8.115244541272608 0.19462846230671227 -6.910054811439304
H -8.040977019714557 0.8302958587547962 -5.523711942977633
O -1.7971137199025415 -13.711786716051366 -4.088496207897476
H -0.9414989627343875 -14.003355191204411 -3.739385095910176
H -1.6413881273790203 -13.616379333878278 -5.040131072517345
O -10.018121899501532 1.033597351498031 -0.4212308641249637
H -10.0036391867545 1.0809737756451154 0.5465051961551746
H -9.174843552166925 0.6133820388161189 -0.6476434613987418
O -9.193472225362594 4.482899960795947 -1.3999906145931815
H -9.656981994329676 5.328844015690416 -1.307769646474295
H -9.847576108536892 3.825714027668119 -1.1185359937122843
O 6.718839421907908 -12.88355247806533 0.47038201074878166
H 6.510778503947735 -12.88140833446521 -0.4760182290894144
H 6.045935791695109 -13.464035354379664 0.8566491191754182
O -11.051342226787119 -8.196630979994264 -3.3997373815780585
H -11.817499171341877 -8.707224058173264 -3.0976354091809672
H -11.429168807566805 -7.347220324498186 -3.6730697021807535
C 4.893694466281197 12.841968846646559 5.439093405398827
O 4.764176732192497 11.767418553969062 5.9503517377155095
O 5.023212200369898 13.916519139324054 4.927835073082145