146

C -5.3564454929577465 1.0091607042253532 -0.0734429577464788
C -4.079135492957747 0.16955070422535368 -0.19788295774647868
C -4.333545492957747 -1.2789292957746463 0.3017270422535212
C -3.1403854929577464 -2.1745492957746464 0.7330270422535212
C -2.905235492957746 0.902300704225353 0.41966704225352136
C -2.7423854929577463 1.056130704225354 1.8024770422535212
C -1.8861754929577463 1.3499307042253532 -0.4326129577464788
C -1.5304554929577463 1.5279207042253526 2.3254170422535214
H -3.5237954929577464 0.7301007042253529 2.484817042253521
C -0.6776454929577462 1.8010507042253527 0.08546704225352131
H -1.9759254929577463 1.2426607042253535 -1.5115229577464788
C -0.4680254929577463 1.8513207042253539 1.4698070422535212
H -1.3950654929577464 1.5446707042253527 3.404047042253521
H 0.1461845070422536 1.9972507042253538 -0.6030529577464789
C -1.8679654929577463 -2.0866092957746467 -0.08765295774647863
C -0.6628654929577462 -1.814079295774647 0.5787970422535212
C -1.8438954929577462 -2.213429295774647 -1.4808029577464787
C 0.5129345070422537 -1.5763292957746469 -0.13022295774647863
H -0.6401854929577462 -1.7032692957746463 1.6609470422535213
C -0.6547954929577462 -1.9962392957746466 -2.1933129577464787
H -2.7578654929577464 -2.4351492957746466 -2.026182957746479
C 0.5308845070422537 -1.645769295774647 -1.5261029577464789
H 1.4044045070422537 -1.2610992957746463 0.41551704225352126
H -0.6795654929577464 -2.0467992957746466 -3.2793129577464786
C 1.7843245070422535 -1.2521692957746469 -2.2771629577464787
H 1.4981245070422535 -0.9384492957746469 -3.290282957746479
H 2.241984507042254 -0.38631929577464685 -1.8135029577464787
C 0.9385645070422537 2.0647807042253534 1.9815670422535212
H 1.0508945070422537 1.5807407042253532 2.9609770422535213
H 1.6053245070422537 1.5496207042253536 1.3096170422535214
C 3.9676945070422533 -1.6881692957746468 -3.314052957746479
H 4.795084507042254 -2.398849295774647 -3.4044129577464783
H 3.548404507042253 -1.4816192957746468 -4.303802957746479
H 4.307714507042253 -0.7637192957746466 -2.851282957746479
C 2.344694507042253 -3.565079295774647 -3.101282957746479
H 1.6334345070422536 -4.047909295774646 -2.4251929577464786
H 1.8561845070422536 -3.293109295774647 -4.041792957746479
H 3.1808045070422537 -4.243519295774647 -3.298122957746479
C 3.5156645070422536 -2.648489295774647 -1.1110629577464786
H 3.9311845070422535 -1.748249295774647 -0.6771029577464787
H 2.767184507042254 -3.1044092957746465 -0.45972295774647876
H 4.319224507042254 -3.371819295774647 -1.2863129577464787
C 2.963994507042253 3.381090704225353 2.401027042253521
H 3.3337945070422537 4.369820704225353 2.6912870422535216
H 3.120994507042253 2.671350704225353 3.2183370422535216
H 3.4665445070422534 3.0664207042253535 1.4881370422535212
C 1.2973745070422538 4.282440704225354 0.8488370422535213
H 1.7592145070422538 3.7367207042253527 0.02653704225352116
H 0.23311450704225378 4.4484607042253534 0.6605570422535213
H 1.7921845070422535 5.251370704225354 0.9736770422535213
C 0.7724845070422537 4.194670704225353 3.2772470422535216
H -0.2956954929577462 4.278220704225354 3.057857042253521
H 0.9298945070422537 3.612620704225354 4.190337042253521
H 1.2046345070422537 5.193640704225353 3.3918370422535213
N 2.876084507042253 -2.324759295774647 -2.4576629577464786
N 1.4527845070422536 3.504690704225353 2.1388470422535213
C -3.593905492957746 -3.637819295774647 0.8297870422535213
H -2.8952554929577463 -1.8680692957746468 1.7595270422535212
H -5.022615492957747 -1.2402792957746467 1.1579970422535213
H -4.898275492957747 -1.7933092957746464 -0.48931295774647876
H -3.883675492957746 0.07871070422535364 -1.2758929577464788
H -3.8751654929577466 -4.038529295774646 -0.1505529577464788
H -4.4603554929577465 -3.7321892957746465 1.4932570422535212
H -2.7953554929577464 -4.271929295774647 1.2313670422535212
H -5.648775492957746 1.147700704225353 0.9733970422535213
H -6.189795492957747 0.5254307042253537 -0.5943629577464788
H -5.2178854929577465 2.002970704225354 -0.5139729577464787
C 3.6710445070422537 1.0263707042253536 -0.27764295774647874
O 2.7356545070422538 1.6631507042253526 -0.7327029577464788
O 3.650814507042253 0.3883007042253537 0.7790570422535212
O 4.756604507042254 0.8696707042253538 -0.8334829577464786
O -0.3179722924487012 3.7802647219636305 6.1695687193375335
H -1.227084370087291 4.088989361806068 6.038527947263324
H 0.07537821005032491 3.82860465301102 5.2853172972012175
O -1.4559569612704308 -6.95124125067955 -4.536238219687685
H -1.3385829715022162 -7.3604203900853085 -5.406734133119251
H -2.0174614275798612 -6.181588384082167 -4.713182119138871
O -10.949183673255101 3.061926371231452 -2.5062951816562986
H -10.969026365093631 3.11405208447738 -3.473691964005302
H -11.108033801936871 2.124543810360209 -2.3190987193706687
O -6.433874297008334 -4.544960095040413 1.4560511044310651
H -5.613086802357581 -4.8051773476561905 1.011571378272449
H -7.127266490000852 -4.770187488416223 0.8177393997991005
O -1.7334636376603227 -5.191583225063704 -7.061104535437514
H -2.54406255654735 -5.462533448621075 -7.517703622113556
H -1.0846272816813944 -5.864214388505147 -7.317113608377124
O -4.248706001827427 -9.214196221797586 3.5620045070706747
H -5.1076707474889 -9.662435041430756 3.5771333928387725
H -3.7001158932335634 -9.778556532764608 2.9967538755290732
O -0.7353909275463524 -14.749350746504279 -8.756994512682093
H -0.6740861647975924 -14.98336902327371 -9.695314569540193
H -1.6877660642042303 -14.66822816086739 -8.59773789751188
O 5.691373896151111 -4.01765403189517 -0.8285295649886297
H 5.732832490323407 -3.9802806554163457 0.1388647561647612
H 6.544833459700788 -4.398271213408622 -1.084848270553308
O -3.5793709593091556 -7.14363555326039 10.322339122529831
H -3.300333786345231 -7.594161885409573 11.133592250132127
H -3.763911912551147 -6.236850001182733 10.609822241025082
O 0.11204394675817397 -7.599127038662141 2.4659532254912424
H 0.24782406073305907 -7.723652488898131 1.5146254534838797
H -0.21567025649586835 -6.690123380281543 2.538600966930705
O 0.6310418975908734 2.138167154313071 -8.538044774910823
H 1.113845454726111 2.149228400326758 -9.378131515047928
H 1.2074506404311065 1.635031461306522 -7.9434277722106295
O 9.86320755456952 -3.7642221962564184 6.701043617631644
H 9.775124191868438 -3.756595444651065 5.736082213856747
H 10.726253675516867 -4.177388789844329 6.854036112090361
O -3.6586073333038094 11.744968712226784 -2.3966292342069835
H -3.45832418738484 11.345465824960145 -1.5368318967916959
H -3.24570459790524 12.6203460913513 -2.3498561701906784
O -2.9469933964400576 0.7569290774036876 -4.5825728106990855
H -3.3519923280618165 0.8234243154980352 -3.704779209904451
H -3.6810719365377516 0.49895035079321226 -5.16009996840206
O -3.445508283517929 6.720768069244521 -6.212047449428902
H -3.9468111362449774 7.464367105189878 -5.845000748736935
H -2.809678048407128 6.500275127942114 -5.514864030768678
O -2.4970749822000844 -11.42679442111096 -4.41386253429211
H -2.319267242771673 -11.424077059632369 -5.366408795974951
H -1.62210268715818 -11.538579940612482 -4.012752294035298
O -0.10323342309882566 11.388014404683204 -5.631068894658688
H -0.5390642856027754 11.0610749883714 -4.829739103467345
H -0.0913109976024784 10.619506064048013 -6.221166115838748
O 10.365608027191035 8.213848006277216 -1.357504285093305
H 9.83346097046491 8.004699437711938 -0.5751720390591677
H 10.01249176943888 7.628344054853898 -2.044130803426812
O 6.521208038929444 0.2547998480436693 6.269481666780421
H 6.578962704841627 0.28923799938320727 7.236149018664039
H 5.579811301153959 0.3931213389104915 6.086175115969887
O -0.31796714655690606 -4.792229454610048 9.569465598308966
H 0.0795486245951662 -4.337219817918418 10.32703724449375
H 0.2699555700566849 -5.546806708213259 9.414798239327414
O -5.949095562374287 -7.733315448096399 -4.89352253724174
H -5.974680882270137 -8.424282784735611 -5.572401678181822
H -6.165500244813786 -8.202484263710932 -4.0737594128130326
O -6.882654674585705 -6.008596435249283 -10.434672354116332
H -7.776986684355711 -6.286714855282042 -10.18610092044137
H -6.3867222258919325 -6.044511720852769 -9.602973464557966
O 1.9673865403180282 3.766897091793359 -7.984496088197608
H 1.9872058902281993 4.1339777030159395 -7.087932440075738
H 1.3020597202815174 4.302552728916719 -8.44207144292956
O 2.807004981124339 -6.175105844771598 4.480923400126998
H 2.9215751632687597 -5.455184716091513 3.8425233697828665
H 1.9730623398938532 -6.59180929410596 4.2166132589095895
C 12.662903658802055 -3.4902899291078784 8.222077772354458
O 12.498372831440854 -3.8984150851229655 7.108892378462002
O 12.827434486163256 -3.0821647730927912 9.335263166246913