146

C -5.3564454929577465 1.0091607042253532 -0.0734429577464788
C -4.079135492957747 0.16955070422535368 -0.19788295774647868
C -4.333545492957747 -1.2789292957746463 0.3017270422535212
C -3.1403854929577464 -2.1745492957746464 0.7330270422535212
C -2.905235492957746 0.902300704225353 0.41966704225352136
C -2.7423854929577463 1.056130704225354 1.8024770422535212
C -1.8861754929577463 1.3499307042253532 -0.4326129577464788
C -1.5304554929577463 1.5279207042253526 2.3254170422535214
H -3.5237954929577464 0.7301007042253529 2.484817042253521
C -0.6776454929577462 1.8010507042253527 0.08546704225352131
H -1.9759254929577463 1.2426607042253535 -1.5115229577464788
C -0.4680254929577463 1.8513207042253539 1.4698070422535212
H -1.3950654929577464 1.5446707042253527 3.404047042253521
H 0.1461845070422536 1.9972507042253538 -0.6030529577464789
C -1.8679654929577463 -2.0866092957746467 -0.08765295774647863
C -0.6628654929577462 -1.814079295774647 0.5787970422535212
C -1.8438954929577462 -2.213429295774647 -1.4808029577464787
C 0.5129345070422537 -1.5763292957746469 -0.13022295774647863
H -0.6401854929577462 -1.7032692957746463 1.6609470422535213
C -0.6547954929577462 -1.9962392957746466 -2.1933129577464787
H -2.7578654929577464 -2.4351492957746466 -2.026182957746479
C 0.5308845070422537 -1.645769295774647 -1.5261029577464789
H 1.4044045070422537 -1.2610992957746463 0.41551704225352126
H -0.6795654929577464 -2.0467992957746466 -3.2793129577464786
C 1.7843245070422535 -1.2521692957746469 -2.2771629577464787
H 1.4981245070422535 -0.9384492957746469 -3.290282957746479
H 2.241984507042254 -0.38631929577464685 -1.8135029577464787
C 0.9385645070422537 2.0647807042253534 1.9815670422535212
H 1.0508945070422537 1.5807407042253532 2.9609770422535213
H 1.6053245070422537 1.5496207042253536 1.3096170422535214
C 3.9676945070422533 -1.6881692957746468 -3.314052957746479
H 4.795084507042254 -2.398849295774647 -3.4044129577464783
H 3.548404507042253 -1.4816192957746468 -4.303802957746479
H 4.307714507042253 -0.7637192957746466 -2.851282957746479
C 2.344694507042253 -3.565079295774647 -3.101282957746479
H 1.6334345070422536 -4.047909295774646 -2.4251929577464786
H 1.8561845070422536 -3.293109295774647 -4.041792957746479
H 3.1808045070422537 -4.243519295774647 -3.298122957746479
C 3.5156645070422536 -2.648489295774647 -1.1110629577464786
H 3.9311845070422535 -1.748249295774647 -0.6771029577464787
H 2.767184507042254 -3.1044092957746465 -0.45972295774647876
H 4.319224507042254 -3.371819295774647 -1.2863129577464787
C 2.963994507042253 3.381090704225353 2.401027042253521
H 3.3337945070422537 4.369820704225353 2.6912870422535216
H 3.120994507042253 2.671350704225353 3.2183370422535216
H 3.4665445070422534 3.0664207042253535 1.4881370422535212
C 1.2973745070422538 4.282440704225354 0.8488370422535213
H 1.7592145070422538 3.7367207042253527 0.02653704225352116
H 0.23311450704225378 4.4484607042253534 0.6605570422535213
H 1.7921845070422535 5.251370704225354 0.9736770422535213
C 0.7724845070422537 4.194670704225353 3.2772470422535216
H -0.2956954929577462 4.278220704225354 3.057857042253521
H 0.9298945070422537 3.612620704225354 4.190337042253521
H 1.2046345070422537 5.193640704225353 3.3918370422535213
N 2.876084507042253 -2.324759295774647 -2.4576629577464786
N 1.4527845070422536 3.504690704225353 2.1388470422535213
C -3.593905492957746 -3.637819295774647 0.8297870422535213
H -2.8952554929577463 -1.8680692957746468 1.7595270422535212
H -5.022615492957747 -1.2402792957746467 1.1579970422535213
H -4.898275492957747 -1.7933092957746464 -0.48931295774647876
H -3.883675492957746 0.07871070422535364 -1.2758929577464788
H -3.8751654929577466 -4.038529295774646 -0.1505529577464788
H -4.4603554929577465 -3.7321892957746465 1.4932570422535212
H -2.7953554929577464 -4.271929295774647 1.2313670422535212
H -5.648775492957746 1.147700704225353 0.9733970422535213
H -6.189795492957747 0.5254307042253537 -0.5943629577464788
H -5.2178854929577465 2.002970704225354 -0.5139729577464787
C 3.6710445070422537 1.0263707042253536 -0.27764295774647874
O 2.7356545070422538 1.6631507042253526 -0.7327029577464788
O 3.650814507042253 0.3883007042253537 0.7790570422535212
O 4.756604507042254 0.8696707042253538 -0.8334829577464786
O -7.627314757651262 -7.864505478870283 0.5074727781536913
H -7.754149885006868 -8.631480057397269 -0.0709995230518553
H -6.993287626093649 -8.174454149738333 1.1714783219377432
O 2.935075486915713 0.5658726951416115 -14.728034877556649
H 2.6022414596102013 0.3556775123652063 -15.613476491840272
H 3.574307381767807 1.2778343327309232 -14.881185638263037
O -5.557636220323023 8.978467992359047 4.165806186183568
H -5.381120039125657 8.221382684605167 4.744279376105721
H -5.04468275057703 8.786802308673298 3.366365789485465
O 4.101830410244175 -6.167543433212494 0.25456267109826985
H 4.373600147373188 -6.052518574356649 -0.668409619236614
H 4.930024278598976 -6.357089499345428 0.7205338606937622
O -11.997190803474544 -2.6308656316314623 -5.111661903133873
H -12.634312748179426 -3.3026748107653967 -4.825802827177101
H -11.818765570943409 -2.8562347033545312 -6.037045694977502
O -6.0591803031096925 -5.520136985253891 -3.5897012175185603
H -5.502527916059771 -4.74385933855291 -3.752484792009393
H -5.6017434614961115 -5.990840186905875 -2.8768534243753376
O -4.275609771652124 8.989622209650587 -4.797565306607
H -3.624300312696201 8.919032209226055 -4.083576232870847
H -3.73762775302476 9.020664647309209 -5.602906016491852
O 2.8822487234446323 1.9613562687379067 -10.955112807283731
H 2.851296310165934 2.0098730591749394 -11.922405640947828
H 2.4865636893847403 2.797321449601967 -10.666049640304712
O -1.0998421392618463 -7.4849226269301035 7.192354857205832
H -0.8447731603182542 -7.541940597313145 6.259265298838536
H -0.5365132628150904 -8.141062978879154 7.629507416165986
O 6.101643013649259 7.532633195422491 8.110902129430437
H 6.512023302870619 7.7163235782631485 8.969280378438675
H 6.575787338901777 8.112278325471337 7.4959544679652605
O -6.154906104264295 -8.936273848965365 -1.66657785048278
H -6.098526577291487 -9.676146886634632 -1.0433791711128872
H -6.9070025927233605 -9.164449921896642 -2.2333657262257294
O -12.293715724438549 1.6092779971944635 0.029657676189506432
H -11.687095555569776 1.442889065564957 0.7667425091991236
H -12.754521125798044 0.7652050220920747 -0.08934290817761203
O -0.708097724274693 -1.9298691185464225 -10.703417294458676
H -1.1462227578990616 -1.9931400177586807 -11.5653979236636
H -0.30495773902497086 -1.0487344540129275 -10.709882551630553
O 8.593626889794827 9.41296281188168 0.09054641035360056
H 8.793026933380252 9.439857230855358 -0.8573373745832447
H 9.237118360980723 8.782398896417915 0.4472953687627609
O 6.538950585149097 -0.6934684880971904 2.2153292555109485
H 6.756766239375232 -0.7465227121104545 3.158042863659464
H 5.576474947185728 -0.8030525133158068 2.1909585344733715
O 3.5132046910622914 4.070951692281083 11.060713240354614
H 3.5126447914373955 4.776794221539591 10.396820653182289
H 3.304638215171209 3.272206932531829 10.553299426778871
O -9.54254804247282 -1.6139184670225464 3.2374678951572085
H -10.16244806273787 -1.156935032684376 2.649371421340301
H -10.096170589279648 -2.2542329073962843 3.709126073731466
O -0.3452841641233896 -2.5539973047635742 -7.81327569268001
H -0.3379358754625547 -2.121224519249641 -6.946314865610949
H -0.07158796298696546 -3.4638612978521364 -7.623013116579437
O -7.715986144385255 -6.669038821413784 -1.5907591919588524
H -7.680232357579819 -6.783235456962893 -2.5523454606099474
H -8.509655691053084 -6.131699918233384 -1.4482197303316684
O -5.852336096892155 -10.914956788773937 0.6955222350945585
H -6.512862804081423 -10.822636341535581 -0.007434919368936921
H -5.743353297605131 -10.0136096646004 1.0341341892598819
O 11.404803352803409 4.849118488202684 6.160690735488169
H 11.88476240714294 4.456600793129776 6.905362825815286
H 10.705077790105433 4.206898522879099 5.968598056432529
O 1.313542571605749 1.1555310732977453 6.867391408479974
H 1.6118119290099928 1.5014874059509573 7.721977251582233
H 1.1811944779057029 1.9489021183974913 6.327013474815673
O 3.691546496515018 10.477621039033114 -4.141913702323693
H 4.136795214441428 9.879513933529815 -3.52305279191542
H 3.2932711988846735 9.883718356761296 -4.7958390310790495
O -2.0373540051931527 -7.511174568690052 9.809249731436367
H -2.051396355344597 -7.251071518137033 10.742585990453042
H -1.8717341698835108 -6.681163209859268 9.33743074213657
C 6.561180524314919 10.12691640098755 4.2223226977552235
O 6.226916979389371 9.73324941241804 5.302189560819564
O 6.895444069240467 10.520583389557062 3.1424558346908835