146

C -5.3564454929577465 1.0091607042253532 -0.0734429577464788
C -4.079135492957747 0.16955070422535368 -0.19788295774647868
C -4.333545492957747 -1.2789292957746463 0.3017270422535212
C -3.1403854929577464 -2.1745492957746464 0.7330270422535212
C -2.905235492957746 0.902300704225353 0.41966704225352136
C -2.7423854929577463 1.056130704225354 1.8024770422535212
C -1.8861754929577463 1.3499307042253532 -0.4326129577464788
C -1.5304554929577463 1.5279207042253526 2.3254170422535214
H -3.5237954929577464 0.7301007042253529 2.484817042253521
C -0.6776454929577462 1.8010507042253527 0.08546704225352131
H -1.9759254929577463 1.2426607042253535 -1.5115229577464788
C -0.4680254929577463 1.8513207042253539 1.4698070422535212
H -1.3950654929577464 1.5446707042253527 3.404047042253521
H 0.1461845070422536 1.9972507042253538 -0.6030529577464789
C -1.8679654929577463 -2.0866092957746467 -0.08765295774647863
C -0.6628654929577462 -1.814079295774647 0.5787970422535212
C -1.8438954929577462 -2.213429295774647 -1.4808029577464787
C 0.5129345070422537 -1.5763292957746469 -0.13022295774647863
H -0.6401854929577462 -1.7032692957746463 1.6609470422535213
C -0.6547954929577462 -1.9962392957746466 -2.1933129577464787
H -2.7578654929577464 -2.4351492957746466 -2.026182957746479
C 0.5308845070422537 -1.645769295774647 -1.5261029577464789
H 1.4044045070422537 -1.2610992957746463 0.41551704225352126
H -0.6795654929577464 -2.0467992957746466 -3.2793129577464786
C 1.7843245070422535 -1.2521692957746469 -2.2771629577464787
H 1.4981245070422535 -0.9384492957746469 -3.290282957746479
H 2.241984507042254 -0.38631929577464685 -1.8135029577464787
C 0.9385645070422537 2.0647807042253534 1.9815670422535212
H 1.0508945070422537 1.5807407042253532 2.9609770422535213
H 1.6053245070422537 1.5496207042253536 1.3096170422535214
C 3.9676945070422533 -1.6881692957746468 -3.314052957746479
H 4.795084507042254 -2.398849295774647 -3.4044129577464783
H 3.548404507042253 -1.4816192957746468 -4.303802957746479
H 4.307714507042253 -0.7637192957746466 -2.851282957746479
C 2.344694507042253 -3.565079295774647 -3.101282957746479
H 1.6334345070422536 -4.047909295774646 -2.4251929577464786
H 1.8561845070422536 -3.293109295774647 -4.041792957746479
H 3.1808045070422537 -4.243519295774647 -3.298122957746479
C 3.5156645070422536 -2.648489295774647 -1.1110629577464786
H 3.9311845070422535 -1.748249295774647 -0.6771029577464787
H 2.767184507042254 -3.1044092957746465 -0.45972295774647876
H 4.319224507042254 -3.371819295774647 -1.2863129577464787
C 2.963994507042253 3.381090704225353 2.401027042253521
H 3.3337945070422537 4.369820704225353 2.6912870422535216
H 3.120994507042253 2.671350704225353 3.2183370422535216
H 3.4665445070422534 3.0664207042253535 1.4881370422535212
C 1.2973745070422538 4.282440704225354 0.8488370422535213
H 1.7592145070422538 3.7367207042253527 0.02653704225352116
H 0.23311450704225378 4.4484607042253534 0.6605570422535213
H 1.7921845070422535 5.251370704225354 0.9736770422535213
C 0.7724845070422537 4.194670704225353 3.2772470422535216
H -0.2956954929577462 4.278220704225354 3.057857042253521
H 0.9298945070422537 3.612620704225354 4.190337042253521
H 1.2046345070422537 5.193640704225353 3.3918370422535213
N 2.876084507042253 -2.324759295774647 -2.4576629577464786
N 1.4527845070422536 3.504690704225353 2.1388470422535213
C -3.593905492957746 -3.637819295774647 0.8297870422535213
H -2.8952554929577463 -1.8680692957746468 1.7595270422535212
H -5.022615492957747 -1.2402792957746467 1.1579970422535213
H -4.898275492957747 -1.7933092957746464 -0.48931295774647876
H -3.883675492957746 0.07871070422535364 -1.2758929577464788
H -3.8751654929577466 -4.038529295774646 -0.1505529577464788
H -4.4603554929577465 -3.7321892957746465 1.4932570422535212
H -2.7953554929577464 -4.271929295774647 1.2313670422535212
H -5.648775492957746 1.147700704225353 0.9733970422535213
H -6.189795492957747 0.5254307042253537 -0.5943629577464788
H -5.2178854929577465 2.002970704225354 -0.5139729577464787
C 3.6710445070422537 1.0263707042253536 -0.27764295774647874
O 2.7356545070422538 1.6631507042253526 -0.7327029577464788
O 3.650814507042253 0.3883007042253537 0.7790570422535212
O 4.756604507042254 0.8696707042253538 -0.8334829577464786
O -4.119558690504224 -2.9275380233880988 -12.672092799639701
H -4.588324568821354 -3.5313320913607456 -13.26762502522167
H -4.149797176447009 -3.3754268811039365 -11.813347698109633
O -4.355564971880874 6.421144912246538 0.6839294592341849
H -4.311531000054659 5.61593859914744 0.14664819251202577
H -4.443485665329803 7.13285440898361 0.032238207015987896
O 4.212571509794177 4.31081250008475 -2.619520021094961
H 3.6169524896895213 4.607461726487476 -3.323937919976183
H 3.815537505693928 3.4826213574604252 -2.3106100420286673
O 1.4086925473226601 4.64963394052266 -12.56385025762998
H 2.3362364888446505 4.452106792351752 -12.76287944941179
H 1.4286695188969747 5.561245178190029 -12.235935914751712
O -8.114911268264988 -6.816585505942075 -2.1837899450019784
H -8.553264088124871 -7.054917712930843 -1.3531203829420986
H -7.24831991250749 -6.485045503503937 -1.904393106777741
O -7.973146642025969 4.796592330113491 -2.883699568621952
H -7.553781228461614 3.9315338498657644 -2.7621519131221777
H -8.356332978249073 4.994922524800257 -2.016061792872519
O 5.613809199821668 10.234893461764239 -6.498927137562182
H 5.355892311868805 10.914770066913523 -7.139406674768012
H 5.517873616263668 10.673739673821323 -5.6403397452307225
O 1.357791709820074 -5.629077188182293 -7.854251733157142
H 1.1745369788934035 -5.944486398520149 -6.956531236272368
H 1.2378517707792254 -6.4154124131837555 -8.407653277467217
O 0.6736264880154375 6.887147994931379 6.601544598443382
H 0.2630013448616886 6.106069928099699 7.001883707480274
H 1.624415764504891 6.714620043501352 6.673626510099631
O 0.42774764680536226 -4.926404399711023 -12.764602927600796
H 0.4721889029273081 -5.698245548150147 -13.348772058273143
H 0.8473119108080129 -5.228640208880047 -11.94510229408801
O -0.10917528679082067 -10.635497568033822 -6.009857133705911
H 0.6155995821905917 -11.269514135477433 -5.901728791445436
H -0.1177045043791407 -10.449709343887847 -6.960841850994266
O 2.49563950287116 8.871460902674173 -1.742605668394427
H 2.1946991641726834 8.830350871956314 -2.662775345583599
H 2.543598951075452 7.942740330404439 -1.4703191753931861
O -7.525552599212604 4.938243859734054 -8.077367906194736
H -7.63707961431956 4.9497704943047545 -9.03986269501014
H -6.948635770716338 5.696196103512346 -7.899499096536435
O 7.4782618146197315 2.692620418839712 7.031966462774313
H 6.92835596412992 3.1861496222813206 6.4050694713575655
H 7.413842782504568 1.7748692727116482 6.727754420964706
O -3.6314199187465297 12.662360372029685 8.147971797194309
H -3.727124022255297 12.60448585080566 9.1104990026616
H -2.6874481892306266 12.504266006986008 7.996692287953332
O -9.36151918273431 -9.810947101968774 3.6701213319405817
H -9.578784704392838 -10.738445259184536 3.84763251006696
H -9.692975037451905 -9.339663018349768 4.449217136832909
O 5.074320311427519 -6.929320581259559 5.227423152828723
H 5.194557844156055 -6.9131233407182915 6.188801300085152
H 4.1162713320892985 -6.843936905929493 5.109891346596851
O 4.905667911126964 6.4319243622076625 -6.011522800595204
H 5.7832289415880656 6.612995227335881 -5.6426497377161535
H 4.722048888013485 7.203465909444617 -6.568271971710937
O 10.244757440297505 -9.476374080479157 -0.7472728157820381
H 9.624766093977073 -10.221073927284678 -0.7477477427352177
H 10.13433227357212 -9.079325345477642 -1.624267986172029
O -4.551325773371337 0.4094515333379205 9.74188529613018
H -3.6621836866735307 0.626374766783016 9.423548968711525
H -5.13549547907521 0.956188596258809 9.195271828251377
O 2.643920235744226 -2.7121202526061765 9.093392814004133
H 1.7218839336735872 -2.9943161176234865 9.189215088716407
H 2.761000767321497 -2.053051596440594 9.794022958863513
O -1.8033863510381993 5.982448342143997 2.9964069461462133
H -1.7584094517378066 5.852937709938623 2.037151280760239
H -1.4816600708337253 6.887280104618089 3.125765465555733
O 4.70203575382889 -11.717039316668613 5.933947952975254
H 5.075099549899839 -11.654994252134921 6.82610330431724
H 4.621748930485938 -12.670292347307688 5.779595661528338
O 5.221499893310299 2.4679303473092458 0.2835286426804786
H 4.5192087899617945 3.129390099437189 0.3742235122838964
H 5.370907867374871 2.4147499130141803 -0.6724060010029205
C -7.8669918100049125 -5.2178280220090825 2.0364143814878517
O -8.273555905917165 -5.668533932974738 1.0047225306740188
O -7.460427714092661 -4.7671221110434265 3.068106232301684