146

C -5.3564454929577465 1.0091607042253532 -0.0734429577464788
C -4.079135492957747 0.16955070422535368 -0.19788295774647868
C -4.333545492957747 -1.2789292957746463 0.3017270422535212
C -3.1403854929577464 -2.1745492957746464 0.7330270422535212
C -2.905235492957746 0.902300704225353 0.41966704225352136
C -2.7423854929577463 1.056130704225354 1.8024770422535212
C -1.8861754929577463 1.3499307042253532 -0.4326129577464788
C -1.5304554929577463 1.5279207042253526 2.3254170422535214
H -3.5237954929577464 0.7301007042253529 2.484817042253521
C -0.6776454929577462 1.8010507042253527 0.08546704225352131
H -1.9759254929577463 1.2426607042253535 -1.5115229577464788
C -0.4680254929577463 1.8513207042253539 1.4698070422535212
H -1.3950654929577464 1.5446707042253527 3.404047042253521
H 0.1461845070422536 1.9972507042253538 -0.6030529577464789
C -1.8679654929577463 -2.0866092957746467 -0.08765295774647863
C -0.6628654929577462 -1.814079295774647 0.5787970422535212
C -1.8438954929577462 -2.213429295774647 -1.4808029577464787
C 0.5129345070422537 -1.5763292957746469 -0.13022295774647863
H -0.6401854929577462 -1.7032692957746463 1.6609470422535213
C -0.6547954929577462 -1.9962392957746466 -2.1933129577464787
H -2.7578654929577464 -2.4351492957746466 -2.026182957746479
C 0.5308845070422537 -1.645769295774647 -1.5261029577464789
H 1.4044045070422537 -1.2610992957746463 0.41551704225352126
H -0.6795654929577464 -2.0467992957746466 -3.2793129577464786
C 1.7843245070422535 -1.2521692957746469 -2.2771629577464787
H 1.4981245070422535 -0.9384492957746469 -3.290282957746479
H 2.241984507042254 -0.38631929577464685 -1.8135029577464787
C 0.9385645070422537 2.0647807042253534 1.9815670422535212
H 1.0508945070422537 1.5807407042253532 2.9609770422535213
H 1.6053245070422537 1.5496207042253536 1.3096170422535214
C 3.9676945070422533 -1.6881692957746468 -3.314052957746479
H 4.795084507042254 -2.398849295774647 -3.4044129577464783
H 3.548404507042253 -1.4816192957746468 -4.303802957746479
H 4.307714507042253 -0.7637192957746466 -2.851282957746479
C 2.344694507042253 -3.565079295774647 -3.101282957746479
H 1.6334345070422536 -4.047909295774646 -2.4251929577464786
H 1.8561845070422536 -3.293109295774647 -4.041792957746479
H 3.1808045070422537 -4.243519295774647 -3.298122957746479
C 3.5156645070422536 -2.648489295774647 -1.1110629577464786
H 3.9311845070422535 -1.748249295774647 -0.6771029577464787
H 2.767184507042254 -3.1044092957746465 -0.45972295774647876
H 4.319224507042254 -3.371819295774647 -1.2863129577464787
C 2.963994507042253 3.381090704225353 2.401027042253521
H 3.3337945070422537 4.369820704225353 2.6912870422535216
H 3.120994507042253 2.671350704225353 3.2183370422535216
H 3.4665445070422534 3.0664207042253535 1.4881370422535212
C 1.2973745070422538 4.282440704225354 0.8488370422535213
H 1.7592145070422538 3.7367207042253527 0.02653704225352116
H 0.23311450704225378 4.4484607042253534 0.6605570422535213
H 1.7921845070422535 5.251370704225354 0.9736770422535213
C 0.7724845070422537 4.194670704225353 3.2772470422535216
H -0.2956954929577462 4.278220704225354 3.057857042253521
H 0.9298945070422537 3.612620704225354 4.190337042253521
H 1.2046345070422537 5.193640704225353 3.3918370422535213
N 2.876084507042253 -2.324759295774647 -2.4576629577464786
N 1.4527845070422536 3.504690704225353 2.1388470422535213
C -3.593905492957746 -3.637819295774647 0.8297870422535213
H -2.8952554929577463 -1.8680692957746468 1.7595270422535212
H -5.022615492957747 -1.2402792957746467 1.1579970422535213
H -4.898275492957747 -1.7933092957746464 -0.48931295774647876
H -3.883675492957746 0.07871070422535364 -1.2758929577464788
H -3.8751654929577466 -4.038529295774646 -0.1505529577464788
H -4.4603554929577465 -3.7321892957746465 1.4932570422535212
H -2.7953554929577464 -4.271929295774647 1.2313670422535212
H -5.648775492957746 1.147700704225353 0.9733970422535213
H -6.189795492957747 0.5254307042253537 -0.5943629577464788
H -5.2178854929577465 2.002970704225354 -0.5139729577464787
C 3.6710445070422537 1.0263707042253536 -0.27764295774647874
O 2.7356545070422538 1.6631507042253526 -0.7327029577464788
O 3.650814507042253 0.3883007042253537 0.7790570422535212
O 4.756604507042254 0.8696707042253538 -0.8334829577464786
O -9.71460577465548 8.463937198663645 -8.579021044546383
H -9.848930566909418 8.332161369296053 -7.628463661806961
H -9.004413702207716 9.121487296163455 -8.626106433047909
O 0.2413961175116892 6.122518812171941 -3.518182870850435
H 1.0850277654652443 6.515037915809253 -3.788704132031383
H 0.47911233420753463 5.543714854806834 -2.7782917142886703
O -10.061107897624689 -2.7589924190539215 -11.44092277027299
H -10.102334449003987 -2.817588667602358 -12.407273745859717
H -9.964089100289524 -3.6796081197371553 -11.154538362668184
O 3.971840869594214 3.8361028516028273 -6.321063480951712
H 3.968235150060047 3.9999947929664 -7.27609949453587
H 3.2118007475876 4.340513224074093 -5.994151973990624
O -7.386474106344847 4.519464427913621 7.1863240243948265
H -7.706833000684423 4.111198974550321 6.367998383034625
H -6.428424791007689 4.584048522435296 7.056199666887032
O 11.617553037473478 1.9822836956840924 -1.9548978735823799
H 11.680068707035993 1.9446257240309395 -0.9886468579916474
H 11.40024536335118 1.073351533070138 -2.210987004225358
O 4.4391447829141715 -5.145720184559148 7.171918521559868
H 4.680511602588464 -4.756652927676375 6.317906762342213
H 3.6325734673534305 -5.647624599968963 6.980877648952076
O -8.451282040158997 5.392538990300871 -1.6028800555615161
H -9.105620630524282 5.911262677810239 -1.1112154319861998
H -7.610516704186034 5.834762400384206 -1.4117935576069682
O 0.44724015843340625 1.8105021477424874 -5.243192793426722
H -0.14742279730884 1.4860911941492625 -5.936085901457557
H -0.11441514099787042 2.387241780131679 -4.703862963589413
O 6.326508070860584 0.2771220963473895 0.10517488782039774
H 7.118583088784566 -0.2615117760363974 0.25166063593799615
H 6.386244465778578 0.9696447910085615 0.7803088188307049
O 8.134238754260888 -1.582052045544478 -5.1639566805681
H 7.3180701583625245 -1.4181302481279892 -5.659906097647145
H 7.910538158268853 -1.3304060381720557 -4.2553344958145445
O 1.4688868291632862 0.3504370478193802 6.1465561617579505
H 1.4830450030325752 0.36345331463796327 5.177743754833475
H 1.1177929479853541 -0.5262164130776011 6.363751328363381
O -4.387255030354557 5.427684544767061 10.55699108157987
H -4.449616965820253 5.843173873568678 11.430173172301476
H -5.302115124868466 5.4151501035752645 10.237873799769547
O 11.346433371774774 3.4643760848121987 -4.407165278998582
H 11.91425908256091 3.480701171189554 -3.62213355312695
H 11.247695609671782 4.398764054083887 -4.644087041433403
O 6.542122565176045 6.4589375490445295 -0.2543160206928601
H 6.815579208478484 5.76077929454487 -0.8681269629281312
H 7.263903627091703 7.104050283184356 -0.29701968810612644
O 8.927390969177585 5.715830260390041 5.077382666698037
H 9.207324546619086 4.872965823692577 4.689846745174019
H 8.128170962896272 5.489957947919269 5.576573035514189
O -4.983982143976476 9.009294255715728 2.2701009269088055
H -5.228379330351711 9.919496338922897 2.0447799560312525
H -5.478910437478422 8.828537229429312 3.0833258810508575
O -2.357730084345081 8.314492200778849 -8.611183120716326
H -1.6622944422097525 8.437595661705133 -7.947720866736649
H -2.4950919377084095 7.355484034136695 -8.63110802609242
O 6.566217742518853 1.3591234997465675 -1.9686238483065628
H 6.454677276359391 2.0086353875726424 -1.2582293178648238
H 5.767737200508908 1.4625167229745517 -2.5077904364053007
O -8.342270866938922 -11.019638689649017 -3.0459309565788075
H -8.14949782805865 -11.95817011158695 -3.190722815521317
H -7.48616928197384 -10.582996841339293 -3.1700112403669327
O 4.471389809852154 -6.12886051881725 1.3183261005131006
H 4.3835533347645566 -6.077984088377432 2.28199808794964
H 3.7399423856032783 -5.586090942724646 0.9876483160643417
O 6.042602512075324 1.415246792002944 -4.173469391875555
H 5.705757711345834 1.460203765732357 -5.0809283758713075
H 6.109759988734967 0.4650929639357164 -3.995538167415363
O -5.451821592195737 -0.06082224166397321 9.179576640617729
H -5.6674936583214865 -0.10552566060199409 8.235937662444242
H -6.30170430903497 -0.20805963142723716 9.621144826715488
O 1.1957047696019805 0.8677941898149264 14.144456590316118
H 0.351350940897149 1.0894337266936773 13.72385002291177
H 1.614126963257591 1.7283508826734737 14.297188350381884
C 1.6790156344289766 -8.475535123562066 -2.940019929859094
O 2.0287103234568273 -8.314210827001205 -1.8066592842105618
O 1.3293209454011254 -8.636859420122926 -4.073380575507626