146

C -5.3564454929577465 1.0091607042253532 -0.0734429577464788
C -4.079135492957747 0.16955070422535368 -0.19788295774647868
C -4.333545492957747 -1.2789292957746463 0.3017270422535212
C -3.1403854929577464 -2.1745492957746464 0.7330270422535212
C -2.905235492957746 0.902300704225353 0.41966704225352136
C -2.7423854929577463 1.056130704225354 1.8024770422535212
C -1.8861754929577463 1.3499307042253532 -0.4326129577464788
C -1.5304554929577463 1.5279207042253526 2.3254170422535214
H -3.5237954929577464 0.7301007042253529 2.484817042253521
C -0.6776454929577462 1.8010507042253527 0.08546704225352131
H -1.9759254929577463 1.2426607042253535 -1.5115229577464788
C -0.4680254929577463 1.8513207042253539 1.4698070422535212
H -1.3950654929577464 1.5446707042253527 3.404047042253521
H 0.1461845070422536 1.9972507042253538 -0.6030529577464789
C -1.8679654929577463 -2.0866092957746467 -0.08765295774647863
C -0.6628654929577462 -1.814079295774647 0.5787970422535212
C -1.8438954929577462 -2.213429295774647 -1.4808029577464787
C 0.5129345070422537 -1.5763292957746469 -0.13022295774647863
H -0.6401854929577462 -1.7032692957746463 1.6609470422535213
C -0.6547954929577462 -1.9962392957746466 -2.1933129577464787
H -2.7578654929577464 -2.4351492957746466 -2.026182957746479
C 0.5308845070422537 -1.645769295774647 -1.5261029577464789
H 1.4044045070422537 -1.2610992957746463 0.41551704225352126
H -0.6795654929577464 -2.0467992957746466 -3.2793129577464786
C 1.7843245070422535 -1.2521692957746469 -2.2771629577464787
H 1.4981245070422535 -0.9384492957746469 -3.290282957746479
H 2.241984507042254 -0.38631929577464685 -1.8135029577464787
C 0.9385645070422537 2.0647807042253534 1.9815670422535212
H 1.0508945070422537 1.5807407042253532 2.9609770422535213
H 1.6053245070422537 1.5496207042253536 1.3096170422535214
C 3.9676945070422533 -1.6881692957746468 -3.314052957746479
H 4.795084507042254 -2.398849295774647 -3.4044129577464783
H 3.548404507042253 -1.4816192957746468 -4.303802957746479
H 4.307714507042253 -0.7637192957746466 -2.851282957746479
C 2.344694507042253 -3.565079295774647 -3.101282957746479
H 1.6334345070422536 -4.047909295774646 -2.4251929577464786
H 1.8561845070422536 -3.293109295774647 -4.041792957746479
H 3.1808045070422537 -4.243519295774647 -3.298122957746479
C 3.5156645070422536 -2.648489295774647 -1.1110629577464786
H 3.9311845070422535 -1.748249295774647 -0.6771029577464787
H 2.767184507042254 -3.1044092957746465 -0.45972295774647876
H 4.319224507042254 -3.371819295774647 -1.2863129577464787
C 2.963994507042253 3.381090704225353 2.401027042253521
H 3.3337945070422537 4.369820704225353 2.6912870422535216
H 3.120994507042253 2.671350704225353 3.2183370422535216
H 3.4665445070422534 3.0664207042253535 1.4881370422535212
C 1.2973745070422538 4.282440704225354 0.8488370422535213
H 1.7592145070422538 3.7367207042253527 0.02653704225352116
H 0.23311450704225378 4.4484607042253534 0.6605570422535213
H 1.7921845070422535 5.251370704225354 0.9736770422535213
C 0.7724845070422537 4.194670704225353 3.2772470422535216
H -0.2956954929577462 4.278220704225354 3.057857042253521
H 0.9298945070422537 3.612620704225354 4.190337042253521
H 1.2046345070422537 5.193640704225353 3.3918370422535213
N 2.876084507042253 -2.324759295774647 -2.4576629577464786
N 1.4527845070422536 3.504690704225353 2.1388470422535213
C -3.593905492957746 -3.637819295774647 0.8297870422535213
H -2.8952554929577463 -1.8680692957746468 1.7595270422535212
H -5.022615492957747 -1.2402792957746467 1.1579970422535213
H -4.898275492957747 -1.7933092957746464 -0.48931295774647876
H -3.883675492957746 0.07871070422535364 -1.2758929577464788
H -3.8751654929577466 -4.038529295774646 -0.1505529577464788
H -4.4603554929577465 -3.7321892957746465 1.4932570422535212
H -2.7953554929577464 -4.271929295774647 1.2313670422535212
H -5.648775492957746 1.147700704225353 0.9733970422535213
H -6.189795492957747 0.5254307042253537 -0.5943629577464788
H -5.2178854929577465 2.002970704225354 -0.5139729577464787
C 3.6710445070422537 1.0263707042253536 -0.27764295774647874
O 2.7356545070422538 1.6631507042253526 -0.7327029577464788
O 3.650814507042253 0.3883007042253537 0.7790570422535212
O 4.756604507042254 0.8696707042253538 -0.8334829577464786
O -0.3041769453656291 3.3584593708182773 8.949592073114353
H -1.0697467023122522 3.6954781599921143 8.460420692213455
H -0.5899357525754327 2.485883078448415 9.25929267433446
O -4.834992303173019 6.51282930759033 1.7819314448287351
H -5.619320797711373 7.078304953174562 1.8454410016394727
H -5.190184251321364 5.612938052463385 1.8366704000309741
O -5.706800215071954 -6.625827582699934 8.626785091138004
H -6.147078266235642 -6.26199734403532 9.409568683196984
H -4.890124475514516 -7.012919047482123 8.976303157353602
O 6.243043353784143 -8.249695051733507 0.9025280516422716
H 6.138483918543509 -8.414334139252919 -0.046644562934727185
H 5.432480562774063 -8.609364328794584 1.293153085745709
O 3.9698421268581736 -11.53986532500377 -3.1915086426991994
H 4.893651596061868 -11.821141396675591 -3.271678418889847
H 3.483798439814203 -12.36762063618388 -3.059052523935967
O 5.461631706304484 15.594711778879889 -0.4879613043439681
H 4.916211953332645 16.3938236648152 -0.4340647021779054
H 5.4534345244652105 15.24436694865412 0.41545070047109434
O 3.539113371181301 -8.087794336651656 -1.4163204937865386
H 3.3353283013432553 -7.839622626194376 -2.3305687119088443
H 3.43794797060369 -7.260970786517239 -0.921254515386599
O -7.080408480098762 -2.692669232606501 0.6531257483558912
H -7.403902313589523 -3.599883195647032 0.7593421400181399
H -7.00144626300514 -2.3644818448391947 1.561431837227991
O 1.1180114918558028 -1.4229349316095186 2.6903511160469042
H 1.114975351387835 -2.3808069042068847 2.5439290450893792
H 0.46006753459976024 -1.2909267963572424 3.3893829791529253
O 3.6697248679316563 9.555326871743711 0.8634694389383215
H 2.7782062704929738 9.909450131260682 1.000431712539637
H 4.0294079639883815 10.09796960425688 0.1457446451895703
O -5.992826499914353 -3.664755164073347 -3.691341130974352
H -5.390168058663273 -3.276513021600003 -4.34329066805259
H -6.716117229346313 -4.0246631364424585 -4.2263913309023
O -6.536362725362361 6.386301862202876 5.939701156495738
H -7.148739556005534 6.603226141516188 6.658662790545722
H -5.670223829711951 6.655439342090836 6.2807735456758715
O 5.235997111366461 1.5968610078607326 -5.568225190086942
H 4.767055454018381 1.5481202223409527 -6.414797936358963
H 6.146811482677979 1.3522023144263133 -5.790758893240794
O -7.939541366751189 -13.591574735087818 3.615019914101053
H -7.984936154284338 -14.17855028594752 4.384673324967118
H -8.694946934767513 -13.860285207319926 3.0708516917444637
O -11.436562486587809 7.366800296372513 7.409546055112406
H -11.77078674929863 7.312903346502987 8.317486922080167
H -11.836555591964519 8.177493845701212 7.060628544763713
O -10.103088890761637 -4.210415997856348 8.390057598814767
H -10.114445409399112 -4.356036722447655 7.43212597758393
H -10.772275595698513 -4.824331770332976 8.72807908117965
O -1.3981538376752556 4.408951016584338 -2.98512237937878
H -1.6549142473659073 4.6939081505877 -2.095267963928657
H -2.1849721727153764 3.954207741457565 -3.3214070886232916
O -6.320198037076752 -0.13026120812390474 -8.686560204907561
H -5.890620530778552 -0.08788322464747722 -9.554105379235155
H -6.526450496954773 0.7941943364259467 -8.482100396521405
O -0.7705976846253417 -4.887483110194175 10.66451292640052
H -0.940682256481443 -4.0145854752006915 11.049335371353138
H 0.18887359412472904 -4.996110130181068 10.745611508894125
O -4.526071018421034 -13.044435884142208 7.227963622056878
H -4.852019543603382 -13.241059487085298 8.119066351598839
H -5.285014545248423 -12.634750056550413 6.786234983572533
O 3.753953024281327 9.513792880366788 3.786281879019142
H 4.2712465109488225 8.795320594354386 4.180201134430071
H 3.4458770056351566 9.14605546621511 2.944367212756485
O -4.442848021874276 12.153564454725768 -4.10844136475739
H -4.272120396341174 12.909815972692805 -4.68973567605966
H -4.546495444357356 12.551492740676956 -3.231017729702712
O -0.3533559912511999 -6.004033317560479 13.170231057510026
H -0.9427881855380722 -6.419455240684911 12.52295857159257
H -0.9256581426426127 -5.379806774146005 13.64115930502718
O -4.42677390196601 -8.859855458977853 5.721519192866805
H -4.462609199946408 -8.917443924301914 4.7548927102064775
H -3.629550910667975 -9.35813564492886 5.9562835486247465
C 3.3861777195395875 5.994703448146726 -5.8770018478908925
O 2.376114162948394 5.359644873303187 -5.780614735349621
O 4.396241276130779 6.629762022990264 -5.973388960432164