146

C -5.3564454929577465 1.0091607042253532 -0.0734429577464788
C -4.079135492957747 0.16955070422535368 -0.19788295774647868
C -4.333545492957747 -1.2789292957746463 0.3017270422535212
C -3.1403854929577464 -2.1745492957746464 0.7330270422535212
C -2.905235492957746 0.902300704225353 0.41966704225352136
C -2.7423854929577463 1.056130704225354 1.8024770422535212
C -1.8861754929577463 1.3499307042253532 -0.4326129577464788
C -1.5304554929577463 1.5279207042253526 2.3254170422535214
H -3.5237954929577464 0.7301007042253529 2.484817042253521
C -0.6776454929577462 1.8010507042253527 0.08546704225352131
H -1.9759254929577463 1.2426607042253535 -1.5115229577464788
C -0.4680254929577463 1.8513207042253539 1.4698070422535212
H -1.3950654929577464 1.5446707042253527 3.404047042253521
H 0.1461845070422536 1.9972507042253538 -0.6030529577464789
C -1.8679654929577463 -2.0866092957746467 -0.08765295774647863
C -0.6628654929577462 -1.814079295774647 0.5787970422535212
C -1.8438954929577462 -2.213429295774647 -1.4808029577464787
C 0.5129345070422537 -1.5763292957746469 -0.13022295774647863
H -0.6401854929577462 -1.7032692957746463 1.6609470422535213
C -0.6547954929577462 -1.9962392957746466 -2.1933129577464787
H -2.7578654929577464 -2.4351492957746466 -2.026182957746479
C 0.5308845070422537 -1.645769295774647 -1.5261029577464789
H 1.4044045070422537 -1.2610992957746463 0.41551704225352126
H -0.6795654929577464 -2.0467992957746466 -3.2793129577464786
C 1.7843245070422535 -1.2521692957746469 -2.2771629577464787
H 1.4981245070422535 -0.9384492957746469 -3.290282957746479
H 2.241984507042254 -0.38631929577464685 -1.8135029577464787
C 0.9385645070422537 2.0647807042253534 1.9815670422535212
H 1.0508945070422537 1.5807407042253532 2.9609770422535213
H 1.6053245070422537 1.5496207042253536 1.3096170422535214
C 3.9676945070422533 -1.6881692957746468 -3.314052957746479
H 4.795084507042254 -2.398849295774647 -3.4044129577464783
H 3.548404507042253 -1.4816192957746468 -4.303802957746479
H 4.307714507042253 -0.7637192957746466 -2.851282957746479
C 2.344694507042253 -3.565079295774647 -3.101282957746479
H 1.6334345070422536 -4.047909295774646 -2.4251929577464786
H 1.8561845070422536 -3.293109295774647 -4.041792957746479
H 3.1808045070422537 -4.243519295774647 -3.298122957746479
C 3.5156645070422536 -2.648489295774647 -1.1110629577464786
H 3.9311845070422535 -1.748249295774647 -0.6771029577464787
H 2.767184507042254 -3.1044092957746465 -0.45972295774647876
H 4.319224507042254 -3.371819295774647 -1.2863129577464787
C 2.963994507042253 3.381090704225353 2.401027042253521
H 3.3337945070422537 4.369820704225353 2.6912870422535216
H 3.120994507042253 2.671350704225353 3.2183370422535216
H 3.4665445070422534 3.0664207042253535 1.4881370422535212
C 1.2973745070422538 4.282440704225354 0.8488370422535213
H 1.7592145070422538 3.7367207042253527 0.02653704225352116
H 0.23311450704225378 4.4484607042253534 0.6605570422535213
H 1.7921845070422535 5.251370704225354 0.9736770422535213
C 0.7724845070422537 4.194670704225353 3.2772470422535216
H -0.2956954929577462 4.278220704225354 3.057857042253521
H 0.9298945070422537 3.612620704225354 4.190337042253521
H 1.2046345070422537 5.193640704225353 3.3918370422535213
N 2.876084507042253 -2.324759295774647 -2.4576629577464786
N 1.4527845070422536 3.504690704225353 2.1388470422535213
C -3.593905492957746 -3.637819295774647 0.8297870422535213
H -2.8952554929577463 -1.8680692957746468 1.7595270422535212
H -5.022615492957747 -1.2402792957746467 1.1579970422535213
H -4.898275492957747 -1.7933092957746464 -0.48931295774647876
H -3.883675492957746 0.07871070422535364 -1.2758929577464788
H -3.8751654929577466 -4.038529295774646 -0.1505529577464788
H -4.4603554929577465 -3.7321892957746465 1.4932570422535212
H -2.7953554929577464 -4.271929295774647 1.2313670422535212
H -5.648775492957746 1.147700704225353 0.9733970422535213
H -6.189795492957747 0.5254307042253537 -0.5943629577464788
H -5.2178854929577465 2.002970704225354 -0.5139729577464787
C 3.6710445070422537 1.0263707042253536 -0.27764295774647874
O 2.7356545070422538 1.6631507042253526 -0.7327029577464788
O 3.650814507042253 0.3883007042253537 0.7790570422535212
O 4.756604507042254 0.8696707042253538 -0.8334829577464786
O -10.19730875146869 4.109358650853003 -4.114292372850084
H -10.64946439507817 4.966180341736566 -4.094818778330033
H -10.913256811833058 3.469838667546766 -4.246180621426241
O 13.492705110775654 7.582903851903933 -0.34493674888856724
H 14.098503479550123 7.960555900533727 -1.0001883215352225
H 13.31190851310432 6.6916856572603916 -0.6796077277719743
O 6.350027774991799 -0.37110573936421964 -2.640618900306054
H 7.018843788273359 0.24246931624571832 -2.301239837293289
H 6.862561178110753 -1.0200021767642005 -3.1457969565564374
O 4.074842560764828 -5.378509648920276 -8.935928030988423
H 4.303217327469729 -5.271150984057174 -8.000360588250436
H 4.076541606574199 -4.473646696965729 -9.282600925405392
O -2.149253132960595 -11.04556168721198 -0.9791554128025792
H -1.3953204728322186 -10.948720923110365 -1.580133588196634
H -1.7452808931046593 -11.068514497451826 -0.0986773936403349
O 0.5100135399251853 -3.0871712175481116 -7.814223124175879
H -0.1886902569977833 -3.6065351509123262 -8.239712801824915
H 0.04253122684281685 -2.321281969152982 -7.448387245060801
O 10.371282367987925 2.1257386279363972 5.2212427846657725
H 10.75709874271998 1.844311038239109 4.378087049557608
H 10.358792499899415 1.3167838101842229 5.7545326217437704
O 6.352854785159377 6.41866743126128 -4.257594445459513
H 5.467826615396875 6.804958537178344 -4.338041180111759
H 6.60356447266963 6.215649805356765 -5.171317839305049
O -3.924748305660862 4.238038448605834 4.402284913044366
H -4.53662862190741 4.066243936573371 5.133760463644352
H -4.479544881880885 4.655055435737243 3.7260752297667725
O 4.7813687725467116 5.465934911868989 3.9429262027637586
H 5.676424441584145 5.648391314629877 3.61958061780007
H 4.355276716505754 6.336129618859319 3.9559137354316793
O 1.534074368025558 0.3903583349950335 -6.65243124548506
H 2.0019837545082284 -0.11023359348591999 -5.967277332790159
H 0.6869369826327918 -0.07142233847369062 -6.742313413798241
O 8.535429476556548 -8.418403044650521 -3.6768959074106338
H 7.669130991092872 -8.462826917319148 -4.1087764586287525
H 8.483570749836549 -7.620294986898023 -3.1298162560676914
O -3.854329506816618 3.676587366717623 8.802619169172262
H -3.6204011784025267 2.7371171244917205 8.843122971924538
H -4.73468059603529 3.6813401116170352 8.397747195052764
O -1.0934990222548011 -6.062304480899984 13.255299794422545
H -0.6099848170552864 -6.825414849727618 13.605790786115676
H -1.942525753736632 -6.43332656618367 12.971648307980074
O 1.1781942938012482 7.138945624191071 -0.5762224226515342
H 1.7027579662430383 7.130797079095954 0.2384762404547804
H 1.8097485908599131 7.412018649278901 -1.2585216510961483
O 8.695717395431558 -3.351336028634672 5.254117329730921
H 9.664175197886834 -3.3827790527204904 5.245860332707967
H 8.49039544484436 -2.418839802349099 5.089024541062752
O -1.8900704377964854 -3.836272128699442 -9.436729973079183
H -2.489938188400406 -3.224495320249052 -8.984120676524586
H -2.2628612699073853 -3.913273927049243 -10.327830227172381
O 7.7452174756883965 -10.014570472601244 2.4084796036473803
H 7.775318796598047 -9.91484650395235 1.4450916249719095
H 8.341000955626477 -9.323204934298357 2.7340831690148835
O 6.094343876523042 -9.78247803095013 -5.36087142225717
H 6.415268775755505 -9.947036450065498 -6.260257375366781
H 6.433458002230565 -8.899779213728715 -5.149196312427178
O -8.451857355702163 -1.1247445183377671 4.184239109737726
H -8.938694668912563 -1.2778856438918926 3.3605252133937977
H -8.372724500693652 -0.16023747875811 4.233494628814147
O 8.82689792455789 -2.961271109805067 3.445085562480258
H 8.706066442626982 -3.2580019871093366 2.5305813818836786
H 8.35060549908223 -2.1182355479135704 3.482482235070226
O 4.625288360418409 -10.311264303105556 4.110874855537661
H 3.6976467938310806 -10.081778976837407 4.271451833548241
H 4.639501009749295 -10.593580301491706 3.184021241446295
O -0.6461891993379971 11.633303311095684 -5.476926161406791
H 0.2681643437266392 11.74222913360634 -5.778687856085762
H -0.5703900931410137 11.05169912277355 -4.705594191418581
O -1.3486354829182894 3.1161385766325544 4.737463545139421
H -2.0602918672715695 2.7844300542042233 4.1695885556763965
H -1.7589678885903224 3.181577932365355 5.6128531451899795
C -0.338781591720269 1.3801910716972472 7.701600156601421
O 0.21897810175851817 2.436756473862487 7.775029936512951
O -0.8965412851990566 0.32362566953200833 7.628170376689892