146

C -5.3564454929577465 1.0091607042253532 -0.0734429577464788
C -4.079135492957747 0.16955070422535368 -0.19788295774647868
C -4.333545492957747 -1.2789292957746463 0.3017270422535212
C -3.1403854929577464 -2.1745492957746464 0.7330270422535212
C -2.905235492957746 0.902300704225353 0.41966704225352136
C -2.7423854929577463 1.056130704225354 1.8024770422535212
C -1.8861754929577463 1.3499307042253532 -0.4326129577464788
C -1.5304554929577463 1.5279207042253526 2.3254170422535214
H -3.5237954929577464 0.7301007042253529 2.484817042253521
C -0.6776454929577462 1.8010507042253527 0.08546704225352131
H -1.9759254929577463 1.2426607042253535 -1.5115229577464788
C -0.4680254929577463 1.8513207042253539 1.4698070422535212
H -1.3950654929577464 1.5446707042253527 3.404047042253521
H 0.1461845070422536 1.9972507042253538 -0.6030529577464789
C -1.8679654929577463 -2.0866092957746467 -0.08765295774647863
C -0.6628654929577462 -1.814079295774647 0.5787970422535212
C -1.8438954929577462 -2.213429295774647 -1.4808029577464787
C 0.5129345070422537 -1.5763292957746469 -0.13022295774647863
H -0.6401854929577462 -1.7032692957746463 1.6609470422535213
C -0.6547954929577462 -1.9962392957746466 -2.1933129577464787
H -2.7578654929577464 -2.4351492957746466 -2.026182957746479
C 0.5308845070422537 -1.645769295774647 -1.5261029577464789
H 1.4044045070422537 -1.2610992957746463 0.41551704225352126
H -0.6795654929577464 -2.0467992957746466 -3.2793129577464786
C 1.7843245070422535 -1.2521692957746469 -2.2771629577464787
H 1.4981245070422535 -0.9384492957746469 -3.290282957746479
H 2.241984507042254 -0.38631929577464685 -1.8135029577464787
C 0.9385645070422537 2.0647807042253534 1.9815670422535212
H 1.0508945070422537 1.5807407042253532 2.9609770422535213
H 1.6053245070422537 1.5496207042253536 1.3096170422535214
C 3.9676945070422533 -1.6881692957746468 -3.314052957746479
H 4.795084507042254 -2.398849295774647 -3.4044129577464783
H 3.548404507042253 -1.4816192957746468 -4.303802957746479
H 4.307714507042253 -0.7637192957746466 -2.851282957746479
C 2.344694507042253 -3.565079295774647 -3.101282957746479
H 1.6334345070422536 -4.047909295774646 -2.4251929577464786
H 1.8561845070422536 -3.293109295774647 -4.041792957746479
H 3.1808045070422537 -4.243519295774647 -3.298122957746479
C 3.5156645070422536 -2.648489295774647 -1.1110629577464786
H 3.9311845070422535 -1.748249295774647 -0.6771029577464787
H 2.767184507042254 -3.1044092957746465 -0.45972295774647876
H 4.319224507042254 -3.371819295774647 -1.2863129577464787
C 2.963994507042253 3.381090704225353 2.401027042253521
H 3.3337945070422537 4.369820704225353 2.6912870422535216
H 3.120994507042253 2.671350704225353 3.2183370422535216
H 3.4665445070422534 3.0664207042253535 1.4881370422535212
C 1.2973745070422538 4.282440704225354 0.8488370422535213
H 1.7592145070422538 3.7367207042253527 0.02653704225352116
H 0.23311450704225378 4.4484607042253534 0.6605570422535213
H 1.7921845070422535 5.251370704225354 0.9736770422535213
C 0.7724845070422537 4.194670704225353 3.2772470422535216
H -0.2956954929577462 4.278220704225354 3.057857042253521
H 0.9298945070422537 3.612620704225354 4.190337042253521
H 1.2046345070422537 5.193640704225353 3.3918370422535213
N 2.876084507042253 -2.324759295774647 -2.4576629577464786
N 1.4527845070422536 3.504690704225353 2.1388470422535213
C -3.593905492957746 -3.637819295774647 0.8297870422535213
H -2.8952554929577463 -1.8680692957746468 1.7595270422535212
H -5.022615492957747 -1.2402792957746467 1.1579970422535213
H -4.898275492957747 -1.7933092957746464 -0.48931295774647876
H -3.883675492957746 0.07871070422535364 -1.2758929577464788
H -3.8751654929577466 -4.038529295774646 -0.1505529577464788
H -4.4603554929577465 -3.7321892957746465 1.4932570422535212
H -2.7953554929577464 -4.271929295774647 1.2313670422535212
H -5.648775492957746 1.147700704225353 0.9733970422535213
H -6.189795492957747 0.5254307042253537 -0.5943629577464788
H -5.2178854929577465 2.002970704225354 -0.5139729577464787
C 3.6710445070422537 1.0263707042253536 -0.27764295774647874
O 2.7356545070422538 1.6631507042253526 -0.7327029577464788
O 3.650814507042253 0.3883007042253537 0.7790570422535212
O 4.756604507042254 0.8696707042253538 -0.8334829577464786
O -6.550897991911267 -1.7429968770177258 -6.968551501525293
H -5.9228654252342885 -2.2968769220621135 -6.480945771662779
H -6.767193754886703 -2.2692725150137942 -7.752906038753647
O -4.1188919958861945 12.267685222279777 -2.408600922297622
H -3.2089065658888596 12.040951336647108 -2.6524976611000874
H -4.059830983392804 12.493324722530094 -1.4680901264903432
O -2.683958802290414 -5.685160492430201 -10.910039731054411
H -2.1574444288624757 -5.905755609355421 -11.693038942971343
H -2.4653044365026417 -4.757582853862432 -10.734677428802797
O -7.62036721672969 -5.053108043302144 1.1487040126981367
H -7.924633955771817 -5.062394790252023 2.068651220283311
H -6.863226966725289 -4.448458637559876 1.158688112997777
O -3.9238090040017757 1.4419425603667495 -9.690894054288052
H -4.191509574817303 0.7322210604295694 -10.293885889897755
H -3.0934292232714617 1.7689889992424876 -10.068348675233366
O 10.587587926583701 -3.3990203721660985 0.5918706541011838
H 11.234439827720655 -3.072967707211543 1.235485161839741
H 10.857560347944904 -4.315932117522484 0.4326548030313968
O 3.6000098659600264 8.82102790814409 3.251513665312574
H 3.395809200207476 9.379605284651841 2.4864902934735618
H 4.286157028517995 8.219423746010142 2.9255743339689047
O 9.69062903057354 -0.2492141573725849 2.322891561461076
H 8.970542119192586 -0.7834176719625755 2.690408638557554
H 9.547496484867846 0.6302593527535885 2.7036820073051864
O -3.3530725493187217 5.436660175334152 5.683676554446504
H -3.2724735702070373 4.650917483353921 6.244996056571465
H -3.584920373332607 5.079661403966834 4.813182207513538
O -2.9376079074747845 8.209711947010252 -11.61713475310157
H -3.027837917146206 8.059719194429803 -12.57019722557021
H -3.1906552048758816 9.137885889307617 -11.50128078287106
O -5.883236024819933 -1.6895695060580702 -3.5349168492752736
H -5.108619800856009 -2.2576178098194646 -3.4074092531655724
H -5.557266117385982 -0.9724689854765787 -4.099250444880972
O 8.987649091241746 -7.1179155762646715 2.960820258892921
H 9.102680808759171 -7.958679572371931 3.4286353545394244
H 8.233592183152908 -7.278017669715459 2.3736853141517833
O 5.913731871861399 -4.389742851848673 4.4152030249166225
H 6.881569395378462 -4.382966358702699 4.462234547462691
H 5.699057805916711 -5.2939410801708275 4.14078991734001
O -0.5868431486122527 4.883736381967715 7.39202363227888
H -0.049351345664296886 4.95961545056993 8.194714286025278
H -1.4985403193567253 4.948721375909717 7.713811083430848
O -2.939699069685029 -2.133153303215732 3.9375814463070435
H -2.2807002339086435 -2.6653221807040866 4.408202501061455
H -3.3258024138348383 -1.574096084696008 4.628480265496454
O 0.06494488565127798 2.932731189349472 -7.236410196293965
H 0.9710606326866984 2.840234431014976 -7.567115442052257
H -0.27465059400522374 3.71329927979469 -7.699390012998295
O -3.002930278791551 5.928686379153561 -5.246127649882137
H -3.712169373212603 5.2953963288777866 -5.432918913239166
H -3.2877368609783506 6.738411784026059 -5.695785212641998
O 9.335687185439514 12.153206918133094 0.56513803236412
H 9.952572838678218 12.432415467125097 1.2582917194336152
H 8.47229868278141 12.45582470235393 0.8844258562019072
O 2.023817874620598 -0.3236466037660826 -8.74515779185746
H 1.8328872733608712 -1.2661318978359204 -8.864465515265003
H 1.2171549606264183 0.118894799984755 -9.049154491597204
O -0.506632408108568 5.923446930396068 -11.227259285585868
H -0.3663952268409485 5.3388869473869285 -11.987253046188194
H 0.27038458000348786 6.5024065403727995 -11.230768487896915
O 9.683261788995221 0.7963687986884826 -4.436006349902748
H 10.318431958184906 1.3338793911817204 -3.939409354312644
H 8.819770840754131 1.1272988074880002 -4.146471108728804
O -8.141365770080146 -2.1630238613979254 4.558673028235619
H -8.098683976344931 -1.3152399169531879 4.091331606012778
H -7.212357754624639 -2.3982355857670585 4.7021355537909715
O -2.1395314754847377 -5.39967801824272 -5.248831784477784
H -2.5409704267784896 -5.130663978721103 -6.088739857914653
H -2.8949212995045404 -5.502497245438406 -4.650687684292707
O 6.400556852726416 -5.43809316933694 0.1894410464697116
H 5.679032311894017 -6.016644694615562 0.47866038620061246
H 5.961021908536684 -4.598073578400531 -0.010903816152608936
C 9.297200703546084 9.7794170033557 -7.20575254497579
O 9.196557865399098 8.603511018717322 -7.005916632984567
O 9.397843541693069 10.95532298799408 -7.405588456967013