146

C -5.3564454929577465 1.0091607042253532 -0.0734429577464788
C -4.079135492957747 0.16955070422535368 -0.19788295774647868
C -4.333545492957747 -1.2789292957746463 0.3017270422535212
C -3.1403854929577464 -2.1745492957746464 0.7330270422535212
C -2.905235492957746 0.902300704225353 0.41966704225352136
C -2.7423854929577463 1.056130704225354 1.8024770422535212
C -1.8861754929577463 1.3499307042253532 -0.4326129577464788
C -1.5304554929577463 1.5279207042253526 2.3254170422535214
H -3.5237954929577464 0.7301007042253529 2.484817042253521
C -0.6776454929577462 1.8010507042253527 0.08546704225352131
H -1.9759254929577463 1.2426607042253535 -1.5115229577464788
C -0.4680254929577463 1.8513207042253539 1.4698070422535212
H -1.3950654929577464 1.5446707042253527 3.404047042253521
H 0.1461845070422536 1.9972507042253538 -0.6030529577464789
C -1.8679654929577463 -2.0866092957746467 -0.08765295774647863
C -0.6628654929577462 -1.814079295774647 0.5787970422535212
C -1.8438954929577462 -2.213429295774647 -1.4808029577464787
C 0.5129345070422537 -1.5763292957746469 -0.13022295774647863
H -0.6401854929577462 -1.7032692957746463 1.6609470422535213
C -0.6547954929577462 -1.9962392957746466 -2.1933129577464787
H -2.7578654929577464 -2.4351492957746466 -2.026182957746479
C 0.5308845070422537 -1.645769295774647 -1.5261029577464789
H 1.4044045070422537 -1.2610992957746463 0.41551704225352126
H -0.6795654929577464 -2.0467992957746466 -3.2793129577464786
C 1.7843245070422535 -1.2521692957746469 -2.2771629577464787
H 1.4981245070422535 -0.9384492957746469 -3.290282957746479
H 2.241984507042254 -0.38631929577464685 -1.8135029577464787
C 0.9385645070422537 2.0647807042253534 1.9815670422535212
H 1.0508945070422537 1.5807407042253532 2.9609770422535213
H 1.6053245070422537 1.5496207042253536 1.3096170422535214
C 3.9676945070422533 -1.6881692957746468 -3.314052957746479
H 4.795084507042254 -2.398849295774647 -3.4044129577464783
H 3.548404507042253 -1.4816192957746468 -4.303802957746479
H 4.307714507042253 -0.7637192957746466 -2.851282957746479
C 2.344694507042253 -3.565079295774647 -3.101282957746479
H 1.6334345070422536 -4.047909295774646 -2.4251929577464786
H 1.8561845070422536 -3.293109295774647 -4.041792957746479
H 3.1808045070422537 -4.243519295774647 -3.298122957746479
C 3.5156645070422536 -2.648489295774647 -1.1110629577464786
H 3.9311845070422535 -1.748249295774647 -0.6771029577464787
H 2.767184507042254 -3.1044092957746465 -0.45972295774647876
H 4.319224507042254 -3.371819295774647 -1.2863129577464787
C 2.963994507042253 3.381090704225353 2.401027042253521
H 3.3337945070422537 4.369820704225353 2.6912870422535216
H 3.120994507042253 2.671350704225353 3.2183370422535216
H 3.4665445070422534 3.0664207042253535 1.4881370422535212
C 1.2973745070422538 4.282440704225354 0.8488370422535213
H 1.7592145070422538 3.7367207042253527 0.02653704225352116
H 0.23311450704225378 4.4484607042253534 0.6605570422535213
H 1.7921845070422535 5.251370704225354 0.9736770422535213
C 0.7724845070422537 4.194670704225353 3.2772470422535216
H -0.2956954929577462 4.278220704225354 3.057857042253521
H 0.9298945070422537 3.612620704225354 4.190337042253521
H 1.2046345070422537 5.193640704225353 3.3918370422535213
N 2.876084507042253 -2.324759295774647 -2.4576629577464786
N 1.4527845070422536 3.504690704225353 2.1388470422535213
C -3.593905492957746 -3.637819295774647 0.8297870422535213
H -2.8952554929577463 -1.8680692957746468 1.7595270422535212
H -5.022615492957747 -1.2402792957746467 1.1579970422535213
H -4.898275492957747 -1.7933092957746464 -0.48931295774647876
H -3.883675492957746 0.07871070422535364 -1.2758929577464788
H -3.8751654929577466 -4.038529295774646 -0.1505529577464788
H -4.4603554929577465 -3.7321892957746465 1.4932570422535212
H -2.7953554929577464 -4.271929295774647 1.2313670422535212
H -5.648775492957746 1.147700704225353 0.9733970422535213
H -6.189795492957747 0.5254307042253537 -0.5943629577464788
H -5.2178854929577465 2.002970704225354 -0.5139729577464787
C 3.6710445070422537 1.0263707042253536 -0.27764295774647874
O 2.7356545070422538 1.6631507042253526 -0.7327029577464788
O 3.650814507042253 0.3883007042253537 0.7790570422535212
O 4.756604507042254 0.8696707042253538 -0.8334829577464786
O -10.972346036034407 -2.117220365494577 2.382020314578563
H -10.781634941232932 -2.3963322774446096 1.473894125204409
H -11.708434829313687 -1.494427185214387 2.285771224686033
O -9.438399071630148 -5.004999713518087 2.4627890600575846
H -8.717697962303006 -4.952116628179234 3.108359077328891
H -10.226721045519602 -5.160816849988719 3.004297536228666
O -0.5143809335810539 -9.023322086261025 -0.4610297196701322
H -0.8612165373544736 -9.686460211870546 -1.076594701794863
H -0.8450188544630333 -8.182740200314125 -0.8118325169691162
O 0.2845900332268445 5.326472862225917 -3.178880110237491
H 0.7885955325811951 6.076545390398958 -2.8291130220192358
H 0.5263491754648033 5.299029112179796 -4.116836027126858
O -8.671887843226102 9.398041622680143 -2.232247677932353
H -9.614660154062006 9.406067882769872 -2.4560406759687137
H -8.228967071645439 9.559104563002332 -3.078912820510669
O -2.8934554510042627 -8.23085421819667 2.562492238348942
H -2.4226336780866524 -8.340320761818312 1.7226641066015884
H -2.7974815353562135 -9.090903580382648 2.998457886558377
O -4.948301643053654 12.045924062281626 -7.586540882713444
H -5.0434255668410675 12.301054320782967 -8.516501821258892
H -4.05177352810438 12.33222039980434 -7.355816608900347
O 1.0890144772323986 -6.411890326152149 -8.115142530147287
H 0.6372091671179629 -6.397763607852248 -7.25803124537589
H 1.2325041959935548 -7.354381947839362 -8.288584704831685
O 9.837534099146698 7.559304083622401 4.150906008309124
H 10.673514663275405 7.977593703837658 3.8956852275736598
H 9.854657878039172 6.70455010985186 3.694765279125782
O 1.8561864582553786 4.674418803898433 11.172879718694059
H 1.2620736069556893 4.366641982174484 11.873786777318854
H 2.541100444155509 5.169304178936993 11.647161535540693
O 6.392181766133956 6.138360623371573 11.180164948529125
H 6.280740033192176 5.926106432804969 12.119045268722198
H 6.854550245604477 5.367111691216464 10.819121435719763
O -4.252210806382777 5.865154298491453 0.45215458971595823
H -4.224163949207632 6.189407163996444 1.364865283153041
H -4.755671419692253 6.543881835204495 -0.021995477302378053
O -3.676748199686673 -6.371307971138522 -5.15845712546819
H -3.47084029540486 -7.082058002264395 -4.532834487523524
H -2.9719567831562106 -5.72191845593696 -5.015194216691132
O 4.356327750156776 4.5328296974370135 -9.795780427586948
H 3.994171746812163 4.478774672010544 -10.692936177926653
H 5.252377803872868 4.174455074998993 -9.88309523462329
O -7.830061309074024 8.710656314540643 -0.32236690863094625
H -8.466595339209903 9.119567912800886 0.283094147248977
H -7.794229269252883 7.786001612821883 -0.03480527730360189
O 4.846631822963981 -8.856728300578354 7.08299046901687
H 5.398146828325792 -9.336859156092835 7.718815065382641
H 5.420311802378092 -8.141957056964877 6.768418863777825
O 2.067019831948299 -7.403462705344881 3.1752033070618353
H 2.5987185720975257 -7.725379710781587 2.431810242637375
H 2.6665743289702752 -7.4614731333567725 3.9342363364107573
O 7.7671384727929205 -5.222805990222989 -6.252304021330296
H 8.562686511535466 -5.613979700701698 -6.643524934860246
H 7.431876660577654 -4.632937514663251 -6.944125272168232
O 3.095284325523116 -0.08504904510585659 4.607845093625973
H 3.201881827664055 0.1000735171190722 3.6626816334813324
H 2.717379628623778 -0.9770342991439203 4.630478938638928
O -6.916034545626587 8.019489464383405 4.271073814403652
H -6.0554567516193885 7.6305918243687305 4.488172508440994
H -7.3795934417290425 7.312522307027001 3.79749960420669
O -5.835755397978657 -9.80434217670319 -8.60595157934522
H -5.863236407688911 -9.827211946511326 -7.6376080841771925
H -6.499493129486986 -9.139452200749284 -8.843302559853388
O -10.176660482965865 5.774561467930935 2.204383546812455
H -10.587488424956875 5.985634427625337 3.0562262345578377
H -9.284119671085143 5.4809841647562285 2.441333352653203
O 10.219337860051226 1.7523789206693772 -4.767568011611212
H 10.08569035259506 1.4627448355668133 -5.682564075754418
H 9.82010827775549 1.0460370440027518 -4.237795571607919
O 11.627250478452407 -4.422946521288747 2.4022076643739148
H 10.816958458292806 -4.884319720784205 2.1385241993007296
H 11.418372019369498 -4.0651485653283945 3.2781713373317283
C -2.2865124515697235 11.331921810640035 2.86591621808758
O -2.7754795139435466 10.27493332845036 2.5893211752327265
O -1.797545389195899 12.38891029282971 3.142511260942435