146

C -5.3564454929577465 1.0091607042253532 -0.0734429577464788
C -4.079135492957747 0.16955070422535368 -0.19788295774647868
C -4.333545492957747 -1.2789292957746463 0.3017270422535212
C -3.1403854929577464 -2.1745492957746464 0.7330270422535212
C -2.905235492957746 0.902300704225353 0.41966704225352136
C -2.7423854929577463 1.056130704225354 1.8024770422535212
C -1.8861754929577463 1.3499307042253532 -0.4326129577464788
C -1.5304554929577463 1.5279207042253526 2.3254170422535214
H -3.5237954929577464 0.7301007042253529 2.484817042253521
C -0.6776454929577462 1.8010507042253527 0.08546704225352131
H -1.9759254929577463 1.2426607042253535 -1.5115229577464788
C -0.4680254929577463 1.8513207042253539 1.4698070422535212
H -1.3950654929577464 1.5446707042253527 3.404047042253521
H 0.1461845070422536 1.9972507042253538 -0.6030529577464789
C -1.8679654929577463 -2.0866092957746467 -0.08765295774647863
C -0.6628654929577462 -1.814079295774647 0.5787970422535212
C -1.8438954929577462 -2.213429295774647 -1.4808029577464787
C 0.5129345070422537 -1.5763292957746469 -0.13022295774647863
H -0.6401854929577462 -1.7032692957746463 1.6609470422535213
C -0.6547954929577462 -1.9962392957746466 -2.1933129577464787
H -2.7578654929577464 -2.4351492957746466 -2.026182957746479
C 0.5308845070422537 -1.645769295774647 -1.5261029577464789
H 1.4044045070422537 -1.2610992957746463 0.41551704225352126
H -0.6795654929577464 -2.0467992957746466 -3.2793129577464786
C 1.7843245070422535 -1.2521692957746469 -2.2771629577464787
H 1.4981245070422535 -0.9384492957746469 -3.290282957746479
H 2.241984507042254 -0.38631929577464685 -1.8135029577464787
C 0.9385645070422537 2.0647807042253534 1.9815670422535212
H 1.0508945070422537 1.5807407042253532 2.9609770422535213
H 1.6053245070422537 1.5496207042253536 1.3096170422535214
C 3.9676945070422533 -1.6881692957746468 -3.314052957746479
H 4.795084507042254 -2.398849295774647 -3.4044129577464783
H 3.548404507042253 -1.4816192957746468 -4.303802957746479
H 4.307714507042253 -0.7637192957746466 -2.851282957746479
C 2.344694507042253 -3.565079295774647 -3.101282957746479
H 1.6334345070422536 -4.047909295774646 -2.4251929577464786
H 1.8561845070422536 -3.293109295774647 -4.041792957746479
H 3.1808045070422537 -4.243519295774647 -3.298122957746479
C 3.5156645070422536 -2.648489295774647 -1.1110629577464786
H 3.9311845070422535 -1.748249295774647 -0.6771029577464787
H 2.767184507042254 -3.1044092957746465 -0.45972295774647876
H 4.319224507042254 -3.371819295774647 -1.2863129577464787
C 2.963994507042253 3.381090704225353 2.401027042253521
H 3.3337945070422537 4.369820704225353 2.6912870422535216
H 3.120994507042253 2.671350704225353 3.2183370422535216
H 3.4665445070422534 3.0664207042253535 1.4881370422535212
C 1.2973745070422538 4.282440704225354 0.8488370422535213
H 1.7592145070422538 3.7367207042253527 0.02653704225352116
H 0.23311450704225378 4.4484607042253534 0.6605570422535213
H 1.7921845070422535 5.251370704225354 0.9736770422535213
C 0.7724845070422537 4.194670704225353 3.2772470422535216
H -0.2956954929577462 4.278220704225354 3.057857042253521
H 0.9298945070422537 3.612620704225354 4.190337042253521
H 1.2046345070422537 5.193640704225353 3.3918370422535213
N 2.876084507042253 -2.324759295774647 -2.4576629577464786
N 1.4527845070422536 3.504690704225353 2.1388470422535213
C -3.593905492957746 -3.637819295774647 0.8297870422535213
H -2.8952554929577463 -1.8680692957746468 1.7595270422535212
H -5.022615492957747 -1.2402792957746467 1.1579970422535213
H -4.898275492957747 -1.7933092957746464 -0.48931295774647876
H -3.883675492957746 0.07871070422535364 -1.2758929577464788
H -3.8751654929577466 -4.038529295774646 -0.1505529577464788
H -4.4603554929577465 -3.7321892957746465 1.4932570422535212
H -2.7953554929577464 -4.271929295774647 1.2313670422535212
H -5.648775492957746 1.147700704225353 0.9733970422535213
H -6.189795492957747 0.5254307042253537 -0.5943629577464788
H -5.2178854929577465 2.002970704225354 -0.5139729577464787
C 3.6710445070422537 1.0263707042253536 -0.27764295774647874
O 2.7356545070422538 1.6631507042253526 -0.7327029577464788
O 3.650814507042253 0.3883007042253537 0.7790570422535212
O 4.756604507042254 0.8696707042253538 -0.8334829577464786
O 5.989903523031373 -1.0063258241719835 -10.677211688431035
H 5.840540460755232 -1.2194055269393216 -11.610622140909513
H 5.1552437019743955 -1.244337126654397 -10.246334040712153
O -5.661279447660109 2.8993924774967463 2.955304243828154
H -5.240685288770313 3.1319099439205687 2.113874782604201
H -5.260280540456911 2.0491445494525524 3.190336755575777
O 6.553196767185241 2.2815295129949806 -9.278594511989821
H 6.725715127482184 1.5164132116627473 -8.709558645197458
H 7.0649183661033845 2.99640692292036 -8.87109820736972
O -4.52294396832786 -4.301809934816327 11.701845894008317
H -4.7327108733904515 -4.211119898450151 12.643514901539287
H -5.333780613253326 -4.01872037128888 11.253107463998303
O 2.733929878192187 -3.8519216340878977 -11.868999600901246
H 2.5809342917455766 -3.8244617293721115 -12.8254543364015
H 2.888658924559909 -4.790342834645713 -11.683563582679966
O 5.437225911916961 -13.57793959131209 -4.74291496874836
H 5.142799840294123 -14.20063749554945 -5.424477853086367
H 4.727489455335556 -12.919287671767723 -4.7053150301873385
O -3.668154919339109 -9.680133672537085 12.299031176261195
H -3.62544635967567 -10.630297667452014 12.48431938041564
H -4.250734442539976 -9.61813262278542 11.527202883648945
O 5.864935411053192 -5.466472355032175 3.4973054081863206
H 5.813369414408495 -5.21093454269278 4.4305838936100645
H 4.9464733170518285 -5.422738224536202 3.1915658915837213
O -10.492186879346061 5.304232780029043 -3.603968829601556
H -11.192163968741443 5.408626222002516 -2.942076511701959
H -10.360159664653189 4.345670154054197 -3.6558191040911674
O -11.66457084169677 -5.963675356589672 0.5094387052036522
H -11.266174007054552 -6.771663701074982 0.8663730888415264
H -10.937566043421088 -5.534709790383007 0.033608367170092635
O -0.13420713925937067 -9.354936030675622 7.1571796508473735
H 0.20239521772724522 -9.59371020008648 6.28045101198971
H -1.0869439919777277 -9.243680171375177 7.0197876294500645
O -6.308829170992997 0.6827849868902056 3.433086918015114
H -6.585653860599711 1.609569132614068 3.374720871729303
H -7.1243100960244234 0.2084155720202201 3.6542801897161237
O 4.418764719548752 -9.654587627425107 -4.360333251566445
H 3.5272370887889624 -9.285056573247765 -4.2731974926013745
H 4.602600789230715 -10.030874437248434 -3.4865057625636844
O 0.3836351998063119 -11.312827738838742 6.304913983975693
H -0.06941006992499021 -12.089634348374531 6.665869427009321
H 1.3077736039973398 -11.594527198648 6.230244254215712
O 5.1940527794231155 1.3919520241564616 6.265674683918624
H 4.449651140477433 1.5117742321860161 6.8743422412090585
H 5.661953915953017 0.6196991587190084 6.617322209941015
O 6.632829189042008 6.826125188796889 2.0280443276148303
H 7.194764202019183 6.568456418773301 1.2818518571054613
H 5.872643525295715 6.228447858616098 1.9659032790030464
O 1.0543800540063661 -7.832615120067713 -1.107160368934295
H 1.4312581449759936 -8.477235847436878 -0.4895890133055394
H 0.12046387514281864 -7.783720886130139 -0.8534442499261254
O -0.1709153095607321 -10.013313990180329 10.877053277162966
H 0.09452001209493499 -10.19014431490356 11.792062830761086
H 0.4633397555224632 -10.519412313406566 10.347386453637172
O -6.581701140012627 5.272188216736621 2.8265573918111633
H -6.092117742623287 5.159133092613638 1.9980080614691187
H -6.0267520908933205 4.832600786506209 3.4881890025773044
O 11.936686853283486 -2.386595448244755 -3.346769297986357
H 12.028926809508526 -2.4003228123998825 -4.311274718836316
H 12.847242981995096 -2.459708867450093 -3.023498654874688
O 4.571508639641111 -5.494444543216398 -5.491908858471261
H 4.533718114159014 -5.269847283328403 -4.550051489261573
H 5.20991994356373 -6.222221247033328 -5.533550432711278
O 8.531242848038854 4.352643916132658 -0.718553377539612
H 7.890807318806379 4.7905888152417075 -1.299082407942989
H 8.204378432267733 4.540147421597593 0.17417504333706457
O -5.347391114311241 3.8493202864065816 -2.475370342167415
H -5.001229992718896 3.6626795117566857 -1.5897603512368592
H -6.297894419082471 3.678444763717601 -2.395953922802541
O -6.294333313528651 5.682483170616782 -0.8813803321774636
H -6.184815661598896 6.1043629771688 -1.7468228026163868
H -5.509214103249322 5.12139232805792 -0.7934779070291917
C -6.696894233248222 -6.716199759864495 7.593422492932809
O -7.516160877845316 -5.946960413507505 7.181243829769742
O -5.877627588651129 -7.485439106221485 8.00560115609587