146

C -5.3564454929577465 1.0091607042253532 -0.0734429577464788
C -4.079135492957747 0.16955070422535368 -0.19788295774647868
C -4.333545492957747 -1.2789292957746463 0.3017270422535212
C -3.1403854929577464 -2.1745492957746464 0.7330270422535212
C -2.905235492957746 0.902300704225353 0.41966704225352136
C -2.7423854929577463 1.056130704225354 1.8024770422535212
C -1.8861754929577463 1.3499307042253532 -0.4326129577464788
C -1.5304554929577463 1.5279207042253526 2.3254170422535214
H -3.5237954929577464 0.7301007042253529 2.484817042253521
C -0.6776454929577462 1.8010507042253527 0.08546704225352131
H -1.9759254929577463 1.2426607042253535 -1.5115229577464788
C -0.4680254929577463 1.8513207042253539 1.4698070422535212
H -1.3950654929577464 1.5446707042253527 3.404047042253521
H 0.1461845070422536 1.9972507042253538 -0.6030529577464789
C -1.8679654929577463 -2.0866092957746467 -0.08765295774647863
C -0.6628654929577462 -1.814079295774647 0.5787970422535212
C -1.8438954929577462 -2.213429295774647 -1.4808029577464787
C 0.5129345070422537 -1.5763292957746469 -0.13022295774647863
H -0.6401854929577462 -1.7032692957746463 1.6609470422535213
C -0.6547954929577462 -1.9962392957746466 -2.1933129577464787
H -2.7578654929577464 -2.4351492957746466 -2.026182957746479
C 0.5308845070422537 -1.645769295774647 -1.5261029577464789
H 1.4044045070422537 -1.2610992957746463 0.41551704225352126
H -0.6795654929577464 -2.0467992957746466 -3.2793129577464786
C 1.7843245070422535 -1.2521692957746469 -2.2771629577464787
H 1.4981245070422535 -0.9384492957746469 -3.290282957746479
H 2.241984507042254 -0.38631929577464685 -1.8135029577464787
C 0.9385645070422537 2.0647807042253534 1.9815670422535212
H 1.0508945070422537 1.5807407042253532 2.9609770422535213
H 1.6053245070422537 1.5496207042253536 1.3096170422535214
C 3.9676945070422533 -1.6881692957746468 -3.314052957746479
H 4.795084507042254 -2.398849295774647 -3.4044129577464783
H 3.548404507042253 -1.4816192957746468 -4.303802957746479
H 4.307714507042253 -0.7637192957746466 -2.851282957746479
C 2.344694507042253 -3.565079295774647 -3.101282957746479
H 1.6334345070422536 -4.047909295774646 -2.4251929577464786
H 1.8561845070422536 -3.293109295774647 -4.041792957746479
H 3.1808045070422537 -4.243519295774647 -3.298122957746479
C 3.5156645070422536 -2.648489295774647 -1.1110629577464786
H 3.9311845070422535 -1.748249295774647 -0.6771029577464787
H 2.767184507042254 -3.1044092957746465 -0.45972295774647876
H 4.319224507042254 -3.371819295774647 -1.2863129577464787
C 2.963994507042253 3.381090704225353 2.401027042253521
H 3.3337945070422537 4.369820704225353 2.6912870422535216
H 3.120994507042253 2.671350704225353 3.2183370422535216
H 3.4665445070422534 3.0664207042253535 1.4881370422535212
C 1.2973745070422538 4.282440704225354 0.8488370422535213
H 1.7592145070422538 3.7367207042253527 0.02653704225352116
H 0.23311450704225378 4.4484607042253534 0.6605570422535213
H 1.7921845070422535 5.251370704225354 0.9736770422535213
C 0.7724845070422537 4.194670704225353 3.2772470422535216
H -0.2956954929577462 4.278220704225354 3.057857042253521
H 0.9298945070422537 3.612620704225354 4.190337042253521
H 1.2046345070422537 5.193640704225353 3.3918370422535213
N 2.876084507042253 -2.324759295774647 -2.4576629577464786
N 1.4527845070422536 3.504690704225353 2.1388470422535213
C -3.593905492957746 -3.637819295774647 0.8297870422535213
H -2.8952554929577463 -1.8680692957746468 1.7595270422535212
H -5.022615492957747 -1.2402792957746467 1.1579970422535213
H -4.898275492957747 -1.7933092957746464 -0.48931295774647876
H -3.883675492957746 0.07871070422535364 -1.2758929577464788
H -3.8751654929577466 -4.038529295774646 -0.1505529577464788
H -4.4603554929577465 -3.7321892957746465 1.4932570422535212
H -2.7953554929577464 -4.271929295774647 1.2313670422535212
H -5.648775492957746 1.147700704225353 0.9733970422535213
H -6.189795492957747 0.5254307042253537 -0.5943629577464788
H -5.2178854929577465 2.002970704225354 -0.5139729577464787
C 3.6710445070422537 1.0263707042253536 -0.27764295774647874
O 2.7356545070422538 1.6631507042253526 -0.7327029577464788
O 3.650814507042253 0.3883007042253537 0.7790570422535212
O 4.756604507042254 0.8696707042253538 -0.8334829577464786
O -5.16473825508147 5.798605381600266 -3.8641021508057136
H -4.337916761592756 5.5559519661613965 -4.307332220612516
H -5.796636160172894 5.128004055072126 -4.164036881538533
O 13.200957277848634 -0.1211063155330816 4.731825292459892
H 12.538906026053152 -0.0017426795745176804 5.429254729253888
H 12.762302393012199 0.20965494694253728 3.9336142780315844
O -6.4227476738573 3.3318082764450225 -11.078410585698446
H -7.382558429274553 3.46362398119487 -11.05956143010297
H -6.096021871928642 3.8867001774693986 -10.354320002392994
O -6.884362438838288 1.6255866680234166 5.510364125481692
H -6.561400706524462 1.4703377909486013 6.410675661855553
H -6.084230951539654 1.8431160557686153 5.0089336589158115
O -5.28661855799664 4.586987378111043 -1.1843744991349687
H -5.150146724845214 4.604304061633949 -0.22518581689979
H -6.249427625051725 4.539698198693196 -1.2829867610829782
O -1.904075596864312 7.818743076949067 6.832285199556028
H -2.4205796912021107 7.005538585998298 6.936637168055876
H -1.4998517671698048 7.952597207612161 7.702715042513824
O -4.5548507665718585 -1.9641965950161393 -8.526066103002405
H -5.414849250688254 -1.837678431688935 -8.097856903468097
H -4.400513074451885 -1.1289957982656458 -8.992522371261735
O -3.162037134457035 -1.4283658744325503 -8.133206505772225
H -2.8390659248273757 -2.2464458208227027 -8.539903144514966
H -2.5563279744822456 -1.2807842178860516 -7.39138576430322
O -2.319276564421555 11.403002695831203 -2.4663392831349253
H -2.602953589107429 11.693921672897536 -3.3460328953363847
H -2.789905140796478 11.995345288093075 -1.8608634861027078
O -4.526757564513397 2.3477514659321788 -12.160676985598155
H -4.38811118240927 2.0930884622298604 -13.085280301715262
H -5.235501037191277 3.0071676020775455 -12.203279727618032
O 11.722952002416418 4.539617391837201 -5.6983621951613275
H 12.16522152792595 5.034446507547613 -6.404414013338172
H 11.352988232441174 3.766610645873064 -6.150633489739745
O 5.4412464609539875 -8.653107730775949 -0.610026818831663
H 5.802938638239143 -8.667549560768737 0.2888266505042375
H 5.5643024741147915 -7.735834294108747 -0.8971306403139108
O 8.293525638001647 10.726273666898273 -4.024060611342041
H 9.150352695336707 11.122362693047476 -3.805135432153539
H 8.525628237553436 9.893472521144036 -4.461704963769594
O 4.546321027422483 -0.12684937477451586 2.8953035225731125
H 5.319856404772492 -0.674625923269734 2.693930163345415
H 4.925569127212627 0.7192062839088831 3.1769462848010175
O 9.718986565571056 4.806591920610682 -4.600584601345577
H 9.695668991044345 4.64151128335838 -3.6460312865314877
H 10.504767055238704 5.360183377730635 -4.723252710328627
O 4.808583076146639 11.178286662845192 -2.655308597820344
H 4.965738371632393 12.105954946334304 -2.423573564195403
H 3.857440863817345 11.14020037625254 -2.8365263425334915
O 5.004015779189336 4.982951454029254 6.4237003772154395
H 5.684189242126534 5.417655507831524 5.88763713204385
H 5.508066476808988 4.510054940937328 7.102864368041395
O -0.6661550980308961 3.1322385924821066 -10.066377325588789
H -0.06541670828295398 3.8923055861321463 -10.04691173680135
H -1.4862960932321 3.4721135593741304 -9.678027355625451
O -1.6535138490766164 -7.179249055153591 -5.728565051666152
H -1.6546796694014416 -6.935429569859892 -4.7907388117079766
H -1.4437921893479282 -6.350885986681056 -6.185504212311651
O -1.0776801094719453 -12.78090559340965 5.016148206691637
H -0.2938471558204325 -13.350441219591907 5.030375932410497
H -0.8669678852068641 -12.076906235683708 5.647770884535559
O 5.922212864902067 -5.275551274411165 -3.2353051431768365
H 5.941422144355949 -5.24356790253792 -4.203589927941361
H 5.852707634834252 -6.220789889396918 -3.033674470825047
O 4.6009665320286555 5.086391393057379 -1.5265261291971497
H 4.753121180778407 5.998501953429066 -1.8161304202950006
H 4.714800311037376 4.562463997780148 -2.3336840440654925
O -3.2668361675434836 -3.971374188430579 16.047534019324747
H -3.270395731276272 -4.902773554851933 16.314835172775183
H -3.2563861244215975 -4.005806808105414 15.079201878166
O 0.5903496002236936 4.3569553990908565 -2.166418686373884
H 0.15786184490553956 3.844741597831705 -1.4667339572283096
H 1.534894192011825 4.276554282995232 -1.9655876156841896
C 2.8706542876452064 -6.146437439111907 1.23629554101448
O 3.7323861320294514 -6.048181213557415 2.0612696010999554
O 2.0089224432609614 -6.2446936646664 0.41132148092900556