146

C -5.3564454929577465 1.0091607042253532 -0.0734429577464788
C -4.079135492957747 0.16955070422535368 -0.19788295774647868
C -4.333545492957747 -1.2789292957746463 0.3017270422535212
C -3.1403854929577464 -2.1745492957746464 0.7330270422535212
C -2.905235492957746 0.902300704225353 0.41966704225352136
C -2.7423854929577463 1.056130704225354 1.8024770422535212
C -1.8861754929577463 1.3499307042253532 -0.4326129577464788
C -1.5304554929577463 1.5279207042253526 2.3254170422535214
H -3.5237954929577464 0.7301007042253529 2.484817042253521
C -0.6776454929577462 1.8010507042253527 0.08546704225352131
H -1.9759254929577463 1.2426607042253535 -1.5115229577464788
C -0.4680254929577463 1.8513207042253539 1.4698070422535212
H -1.3950654929577464 1.5446707042253527 3.404047042253521
H 0.1461845070422536 1.9972507042253538 -0.6030529577464789
C -1.8679654929577463 -2.0866092957746467 -0.08765295774647863
C -0.6628654929577462 -1.814079295774647 0.5787970422535212
C -1.8438954929577462 -2.213429295774647 -1.4808029577464787
C 0.5129345070422537 -1.5763292957746469 -0.13022295774647863
H -0.6401854929577462 -1.7032692957746463 1.6609470422535213
C -0.6547954929577462 -1.9962392957746466 -2.1933129577464787
H -2.7578654929577464 -2.4351492957746466 -2.026182957746479
C 0.5308845070422537 -1.645769295774647 -1.5261029577464789
H 1.4044045070422537 -1.2610992957746463 0.41551704225352126
H -0.6795654929577464 -2.0467992957746466 -3.2793129577464786
C 1.7843245070422535 -1.2521692957746469 -2.2771629577464787
H 1.4981245070422535 -0.9384492957746469 -3.290282957746479
H 2.241984507042254 -0.38631929577464685 -1.8135029577464787
C 0.9385645070422537 2.0647807042253534 1.9815670422535212
H 1.0508945070422537 1.5807407042253532 2.9609770422535213
H 1.6053245070422537 1.5496207042253536 1.3096170422535214
C 3.9676945070422533 -1.6881692957746468 -3.314052957746479
H 4.795084507042254 -2.398849295774647 -3.4044129577464783
H 3.548404507042253 -1.4816192957746468 -4.303802957746479
H 4.307714507042253 -0.7637192957746466 -2.851282957746479
C 2.344694507042253 -3.565079295774647 -3.101282957746479
H 1.6334345070422536 -4.047909295774646 -2.4251929577464786
H 1.8561845070422536 -3.293109295774647 -4.041792957746479
H 3.1808045070422537 -4.243519295774647 -3.298122957746479
C 3.5156645070422536 -2.648489295774647 -1.1110629577464786
H 3.9311845070422535 -1.748249295774647 -0.6771029577464787
H 2.767184507042254 -3.1044092957746465 -0.45972295774647876
H 4.319224507042254 -3.371819295774647 -1.2863129577464787
C 2.963994507042253 3.381090704225353 2.401027042253521
H 3.3337945070422537 4.369820704225353 2.6912870422535216
H 3.120994507042253 2.671350704225353 3.2183370422535216
H 3.4665445070422534 3.0664207042253535 1.4881370422535212
C 1.2973745070422538 4.282440704225354 0.8488370422535213
H 1.7592145070422538 3.7367207042253527 0.02653704225352116
H 0.23311450704225378 4.4484607042253534 0.6605570422535213
H 1.7921845070422535 5.251370704225354 0.9736770422535213
C 0.7724845070422537 4.194670704225353 3.2772470422535216
H -0.2956954929577462 4.278220704225354 3.057857042253521
H 0.9298945070422537 3.612620704225354 4.190337042253521
H 1.2046345070422537 5.193640704225353 3.3918370422535213
N 2.876084507042253 -2.324759295774647 -2.4576629577464786
N 1.4527845070422536 3.504690704225353 2.1388470422535213
C -3.593905492957746 -3.637819295774647 0.8297870422535213
H -2.8952554929577463 -1.8680692957746468 1.7595270422535212
H -5.022615492957747 -1.2402792957746467 1.1579970422535213
H -4.898275492957747 -1.7933092957746464 -0.48931295774647876
H -3.883675492957746 0.07871070422535364 -1.2758929577464788
H -3.8751654929577466 -4.038529295774646 -0.1505529577464788
H -4.4603554929577465 -3.7321892957746465 1.4932570422535212
H -2.7953554929577464 -4.271929295774647 1.2313670422535212
H -5.648775492957746 1.147700704225353 0.9733970422535213
H -6.189795492957747 0.5254307042253537 -0.5943629577464788
H -5.2178854929577465 2.002970704225354 -0.5139729577464787
C 3.6710445070422537 1.0263707042253536 -0.27764295774647874
O 2.7356545070422538 1.6631507042253526 -0.7327029577464788
O 3.650814507042253 0.3883007042253537 0.7790570422535212
O 4.756604507042254 0.8696707042253538 -0.8334829577464786
O -11.915318233498365 7.711008218179638 -10.215167090710004
H -11.92675635172752 8.652242717687367 -10.445197834933062
H -12.561327535618108 7.637795907021133 -9.496645077568035
O -4.786519487924972 -13.108907723999822 -5.1471439736653455
H -4.45614515466289 -13.991515503134506 -5.372585019246163
H -4.049073655943753 -12.697238600804233 -4.6721027941862365
O 4.703258967358689 15.335290153597226 7.727212409096548
H 4.8508413792936915 15.564361003849399 8.657112045698367
H 5.471542947974271 14.792294541780795 7.495140362142209
O 1.213175550613073 -6.130950332813437 -4.158747082042414
H 0.7864713465320232 -6.04238094559281 -3.2932724476556388
H 0.9105650872726749 -6.9929450298674 -4.481785770170873
O 6.359126256483755 -1.0129886551401375 -0.051979357617395916
H 6.495326467358105 -1.9425548214547343 0.18534658260188852
H 6.0182046197998975 -1.0503328487851638 -0.9582573465048028
O -0.6470366673835992 -3.990708337396812 6.38110309649506
H -0.5968913618628956 -4.025223505044948 5.4140139028647845
H -0.23673038693583667 -3.142326106490109 6.606620924630415
O 3.637282085525494 -3.091759613191201 -6.9566991112519485
H 3.741927318145832 -2.829745949117996 -7.883718837055435
H 3.969543799468029 -4.001671564853192 -6.931712355347363
O 5.770272040492903 10.622569281104045 7.923406044933732
H 5.970697225525949 10.696011570565823 8.868606199516393
H 6.357280784048036 9.916485618458726 7.613844192252891
O 6.3444543154724045 -6.48278334487851 7.174619253605499
H 6.249384826240222 -7.072733762133046 7.937434863237559
H 6.534685875830082 -5.618536784466726 7.569399927600926
O -11.921177558512142 2.8031703572391122 -5.004301570634358
H -12.297238300082217 3.694954572594155 -5.051910275650937
H -10.968474813587601 2.9554122923449326 -4.914069551325904
O 1.9847965733058408 -12.187699277708393 8.573255224061288
H 2.6503471210646894 -12.532743901816872 9.187221047745098
H 2.0203901050597572 -12.798611943130998 7.82193587782859
O -0.6412178099105841 7.9452092027750005 4.2749025399442315
H -0.4444479106401644 7.737114749575204 3.349188943744743
H 0.16021734186398273 8.389151449015827 4.590463823695462
O -10.86438507230402 -5.340907892523869 4.891573773623776
H -11.566754257428645 -5.082359215830063 5.507039017538695
H -10.518275510222415 -4.497316351027374 4.563666124351537
O -1.690654992542906 -5.501955249560979 -9.47809362387712
H -2.0026462304957353 -5.915712394044726 -10.296893874078183
H -2.253046208070024 -5.889740909988995 -8.790852511483271
O 8.351123918758041 -4.549459272177965 5.935404097278363
H 8.909719487394597 -4.351945849108372 5.16864025142559
H 8.394544444272606 -5.514265934388257 6.014300908485627
O 4.660907241394755 4.3788829596454795 6.062073556299099
H 3.8183198863719676 3.92122373750873 6.201937570430289
H 5.255523844537029 3.682716692934176 5.744669131848542
O -0.25746085478325487 -11.644897573292415 7.881540027757808
H -0.14653651137264045 -11.664769300859497 6.919111712826027
H -0.5874405720898359 -10.751606204634108 8.060721112548695
O 10.299142950049449 -4.495484364393838 -10.867237068575754
H 10.361197844648174 -4.852466204377318 -11.765947540796008
H 11.196443792525303 -4.592272043459021 -10.514469032079674
O -6.02465276091546 3.3746053261156264 2.194759997038146
H -5.430480015325697 3.1581440415373856 2.928974282909145
H -6.9048472500250675 3.3806807383725714 2.59995463546144
O -0.6039135129833735 -4.38732221650554 -10.337795596321403
H 0.3478795132190319 -4.26708901888972 -10.20140875544757
H -1.0015241471006389 -4.054835671559917 -9.519064611585275
O 1.1989612837429964 5.386029019663485 -10.294493186508321
H 1.3355531127512883 5.3003359376264765 -11.249986108951584
H 0.3004937726717649 5.050770331098477 -10.155497907483678
O -3.6341652919973937 4.550976200239695 -6.327965697249042
H -3.785646112402958 4.389775962739416 -5.384548821536555
H -2.81200885510963 4.07453609201112 -6.517769703674513
O 9.042061842066884 -1.6090144658300387 -2.929373591320709
H 8.422261882865747 -1.9267865262543615 -2.2556998683004683
H 8.505045410172158 -1.5537950723854026 -3.7340636650526173
O 5.989625058471338 2.811345694884048 -2.765583505742458
H 6.013830437590603 2.5132498801654037 -1.843889227920944
H 5.2759964832942865 2.2891364728317654 -3.161807847996086
C -8.553898874147853 -1.5994186994141057 5.067353441235552
O -8.398483460848066 -0.46406936759646644 4.721454321042834
O -8.70931428744764 -2.734768031231744 5.413252561428271