146

C -5.3564454929577465 1.0091607042253532 -0.0734429577464788
C -4.079135492957747 0.16955070422535368 -0.19788295774647868
C -4.333545492957747 -1.2789292957746463 0.3017270422535212
C -3.1403854929577464 -2.1745492957746464 0.7330270422535212
C -2.905235492957746 0.902300704225353 0.41966704225352136
C -2.7423854929577463 1.056130704225354 1.8024770422535212
C -1.8861754929577463 1.3499307042253532 -0.4326129577464788
C -1.5304554929577463 1.5279207042253526 2.3254170422535214
H -3.5237954929577464 0.7301007042253529 2.484817042253521
C -0.6776454929577462 1.8010507042253527 0.08546704225352131
H -1.9759254929577463 1.2426607042253535 -1.5115229577464788
C -0.4680254929577463 1.8513207042253539 1.4698070422535212
H -1.3950654929577464 1.5446707042253527 3.404047042253521
H 0.1461845070422536 1.9972507042253538 -0.6030529577464789
C -1.8679654929577463 -2.0866092957746467 -0.08765295774647863
C -0.6628654929577462 -1.814079295774647 0.5787970422535212
C -1.8438954929577462 -2.213429295774647 -1.4808029577464787
C 0.5129345070422537 -1.5763292957746469 -0.13022295774647863
H -0.6401854929577462 -1.7032692957746463 1.6609470422535213
C -0.6547954929577462 -1.9962392957746466 -2.1933129577464787
H -2.7578654929577464 -2.4351492957746466 -2.026182957746479
C 0.5308845070422537 -1.645769295774647 -1.5261029577464789
H 1.4044045070422537 -1.2610992957746463 0.41551704225352126
H -0.6795654929577464 -2.0467992957746466 -3.2793129577464786
C 1.7843245070422535 -1.2521692957746469 -2.2771629577464787
H 1.4981245070422535 -0.9384492957746469 -3.290282957746479
H 2.241984507042254 -0.38631929577464685 -1.8135029577464787
C 0.9385645070422537 2.0647807042253534 1.9815670422535212
H 1.0508945070422537 1.5807407042253532 2.9609770422535213
H 1.6053245070422537 1.5496207042253536 1.3096170422535214
C 3.9676945070422533 -1.6881692957746468 -3.314052957746479
H 4.795084507042254 -2.398849295774647 -3.4044129577464783
H 3.548404507042253 -1.4816192957746468 -4.303802957746479
H 4.307714507042253 -0.7637192957746466 -2.851282957746479
C 2.344694507042253 -3.565079295774647 -3.101282957746479
H 1.6334345070422536 -4.047909295774646 -2.4251929577464786
H 1.8561845070422536 -3.293109295774647 -4.041792957746479
H 3.1808045070422537 -4.243519295774647 -3.298122957746479
C 3.5156645070422536 -2.648489295774647 -1.1110629577464786
H 3.9311845070422535 -1.748249295774647 -0.6771029577464787
H 2.767184507042254 -3.1044092957746465 -0.45972295774647876
H 4.319224507042254 -3.371819295774647 -1.2863129577464787
C 2.963994507042253 3.381090704225353 2.401027042253521
H 3.3337945070422537 4.369820704225353 2.6912870422535216
H 3.120994507042253 2.671350704225353 3.2183370422535216
H 3.4665445070422534 3.0664207042253535 1.4881370422535212
C 1.2973745070422538 4.282440704225354 0.8488370422535213
H 1.7592145070422538 3.7367207042253527 0.02653704225352116
H 0.23311450704225378 4.4484607042253534 0.6605570422535213
H 1.7921845070422535 5.251370704225354 0.9736770422535213
C 0.7724845070422537 4.194670704225353 3.2772470422535216
H -0.2956954929577462 4.278220704225354 3.057857042253521
H 0.9298945070422537 3.612620704225354 4.190337042253521
H 1.2046345070422537 5.193640704225353 3.3918370422535213
N 2.876084507042253 -2.324759295774647 -2.4576629577464786
N 1.4527845070422536 3.504690704225353 2.1388470422535213
C -3.593905492957746 -3.637819295774647 0.8297870422535213
H -2.8952554929577463 -1.8680692957746468 1.7595270422535212
H -5.022615492957747 -1.2402792957746467 1.1579970422535213
H -4.898275492957747 -1.7933092957746464 -0.48931295774647876
H -3.883675492957746 0.07871070422535364 -1.2758929577464788
H -3.8751654929577466 -4.038529295774646 -0.1505529577464788
H -4.4603554929577465 -3.7321892957746465 1.4932570422535212
H -2.7953554929577464 -4.271929295774647 1.2313670422535212
H -5.648775492957746 1.147700704225353 0.9733970422535213
H -6.189795492957747 0.5254307042253537 -0.5943629577464788
H -5.2178854929577465 2.002970704225354 -0.5139729577464787
C 3.6710445070422537 1.0263707042253536 -0.27764295774647874
O 2.7356545070422538 1.6631507042253526 -0.7327029577464788
O 3.650814507042253 0.3883007042253537 0.7790570422535212
O 4.756604507042254 0.8696707042253538 -0.8334829577464786
O -2.696235722828773 6.882057251763567 -10.828423956629491
H -1.8497847736695734 7.350596979694124 -10.77403029047017
H -2.8727623672133773 6.610866370935263 -9.91504791453189
O -5.6779115744983875 11.532388563373496 -8.601380709227179
H -5.326780818047901 11.885039213661008 -9.432832492330869
H -6.550610836273654 11.945930848475975 -8.521752063444861
O -2.05509125173658 4.933420965259677 1.63737939905926
H -2.745659901785851 5.236169261081924 2.246005528835047
H -2.3261464991331398 5.291860038865302 0.7788851197122564
O 10.255482449871042 -1.116245483721249 9.476275143228099
H 10.242419467678182 -1.1619671227224924 10.444111000759358
H 11.045084371417744 -1.6204608843122283 9.228772457188862
O -4.511987566274905 11.709367403490093 8.040796496387031
H -3.5816513161845145 11.462775133358896 7.928395113035685
H -4.760323770513664 12.083582564436675 7.182161482378165
O 0.46864453146289065 2.8909407960438758 7.866569016478282
H -0.22028803890771043 2.210692629254138 7.82654774761085
H 0.4902201988855439 3.1475421274675344 8.800727563828179
O -5.519255044188456 -1.0268654312149055 6.172155073116767
H -5.110576463249819 -0.5197086502320536 6.889609722474546
H -5.562167683246562 -0.3981564993046476 5.436053498165775
O -2.043546151278787 -0.6946115691697922 -8.315369369989373
H -2.2841993439848842 -0.42445515007199225 -9.214295900335774
H -1.247329619797169 -1.2330823379961235 -8.438049484168328
O 7.401315654306545 -4.405121333910739 0.7249017443541546
H 6.7724544300718055 -3.693450974875967 0.5324797663337004
H 6.914581388385867 -5.213501213096484 0.5045073941400504
O 6.6874540159157085 3.737256354309312 8.533066273754729
H 6.620114395907475 3.580947010151233 9.487005538805716
H 7.620099896277543 3.962921038812174 8.398125337370244
O 2.89036423371498 8.387571013154945 -4.569202098177817
H 3.510846428637315 7.9133350361419925 -3.9955563531478964
H 3.2033572277887203 8.191651629232858 -5.465088767887968
O -9.251334034338795 -0.7285630432729162 -2.855627905595559
H -9.819883223198369 -0.7570570084719913 -2.071467672802315
H -9.520223885811877 0.08380213759534366 -3.3102959218312105
O 5.372768409008017 3.0799360462226084 -5.676550609992287
H 5.765008781443269 3.4332303817600565 -4.863963408758468
H 4.636711642219554 2.5333961022439153 -5.362741002107696
O -2.178204350144189 2.6557106724428983 10.925616707999863
H -2.2401739558453833 2.6707969812667756 11.892518734140728
H -2.453897326735961 3.545729766761619 10.659493919223609
O 0.22049965759866463 -14.608790599781216 0.2605542845870037
H 0.9569091048457841 -14.360573592432415 -0.3182866263444861
H -0.28185210879574374 -13.786876423900813 0.3657290657241923
O -6.838900872327572 -9.296374588761498 -2.4421449170289
H -7.2522336840584565 -9.49423478021038 -3.2959450624297166
H -7.518320378031336 -8.798676895605759 -1.9629288010679398
O -5.572065474114532 6.399156669205914 -1.4101691564222776
H -5.522204841711902 5.972703981096242 -0.5414808469346657
H -5.373219106993252 5.684431450407605 -2.0335389729809368
O 7.298041089134955 2.5038621480023195 0.11794886042751673
H 8.105849495351947 1.985995512419764 -0.017058856002203804
H 6.760232533801694 1.9501844708582856 0.7037516702046092
O -0.3078558783184928 12.211161797830552 -4.789810592486911
H -0.8372247113865474 11.92300474233815 -4.0310606291616295
H -0.755654841353866 11.814150903337376 -5.551926320351238
O 3.962588909813123 -7.206123715000226 -6.240154277594137
H 3.9492485109933932 -6.887673140676995 -5.325070334792967
H 3.063276406134798 -7.038225446246987 -6.5595429692810665
O 7.742798739338598 8.435741332674318 -6.181721518699493
H 7.033766268885188 9.068652493909381 -6.37057006840751
H 7.855802680645134 7.955190453037665 -7.015545784135338
O 2.2683978377450864 -1.0348412921048484 7.134703291305887
H 2.329194682809891 -0.7946582978417518 8.071497414791395
H 1.7989576298085974 -0.2889947139703015 6.731837659416627
O 6.6620110338822105 4.658367312179433 -1.069399650449209
H 6.111777378091384 4.998001137442854 -1.7911053700274864
H 6.5295703022544735 3.6991422903876865 -1.1055763622198111
O -11.031526063778957 2.4660100262541116 -1.3086858408744249
H -10.956567295742365 1.9163264418544625 -2.1031645989516887
H -10.636252726827722 3.3110684148621887 -1.570596614304149
C -0.38231018201657774 0.7159781406028984 -5.402177845632497
O 0.16521505260602565 -0.1770770680981203 -4.82296564879662
O -0.929835416639182 1.6090333493039166 -5.981390042468375