146

C -5.3564454929577465 1.0091607042253532 -0.0734429577464788
C -4.079135492957747 0.16955070422535368 -0.19788295774647868
C -4.333545492957747 -1.2789292957746463 0.3017270422535212
C -3.1403854929577464 -2.1745492957746464 0.7330270422535212
C -2.905235492957746 0.902300704225353 0.41966704225352136
C -2.7423854929577463 1.056130704225354 1.8024770422535212
C -1.8861754929577463 1.3499307042253532 -0.4326129577464788
C -1.5304554929577463 1.5279207042253526 2.3254170422535214
H -3.5237954929577464 0.7301007042253529 2.484817042253521
C -0.6776454929577462 1.8010507042253527 0.08546704225352131
H -1.9759254929577463 1.2426607042253535 -1.5115229577464788
C -0.4680254929577463 1.8513207042253539 1.4698070422535212
H -1.3950654929577464 1.5446707042253527 3.404047042253521
H 0.1461845070422536 1.9972507042253538 -0.6030529577464789
C -1.8679654929577463 -2.0866092957746467 -0.08765295774647863
C -0.6628654929577462 -1.814079295774647 0.5787970422535212
C -1.8438954929577462 -2.213429295774647 -1.4808029577464787
C 0.5129345070422537 -1.5763292957746469 -0.13022295774647863
H -0.6401854929577462 -1.7032692957746463 1.6609470422535213
C -0.6547954929577462 -1.9962392957746466 -2.1933129577464787
H -2.7578654929577464 -2.4351492957746466 -2.026182957746479
C 0.5308845070422537 -1.645769295774647 -1.5261029577464789
H 1.4044045070422537 -1.2610992957746463 0.41551704225352126
H -0.6795654929577464 -2.0467992957746466 -3.2793129577464786
C 1.7843245070422535 -1.2521692957746469 -2.2771629577464787
H 1.4981245070422535 -0.9384492957746469 -3.290282957746479
H 2.241984507042254 -0.38631929577464685 -1.8135029577464787
C 0.9385645070422537 2.0647807042253534 1.9815670422535212
H 1.0508945070422537 1.5807407042253532 2.9609770422535213
H 1.6053245070422537 1.5496207042253536 1.3096170422535214
C 3.9676945070422533 -1.6881692957746468 -3.314052957746479
H 4.795084507042254 -2.398849295774647 -3.4044129577464783
H 3.548404507042253 -1.4816192957746468 -4.303802957746479
H 4.307714507042253 -0.7637192957746466 -2.851282957746479
C 2.344694507042253 -3.565079295774647 -3.101282957746479
H 1.6334345070422536 -4.047909295774646 -2.4251929577464786
H 1.8561845070422536 -3.293109295774647 -4.041792957746479
H 3.1808045070422537 -4.243519295774647 -3.298122957746479
C 3.5156645070422536 -2.648489295774647 -1.1110629577464786
H 3.9311845070422535 -1.748249295774647 -0.6771029577464787
H 2.767184507042254 -3.1044092957746465 -0.45972295774647876
H 4.319224507042254 -3.371819295774647 -1.2863129577464787
C 2.963994507042253 3.381090704225353 2.401027042253521
H 3.3337945070422537 4.369820704225353 2.6912870422535216
H 3.120994507042253 2.671350704225353 3.2183370422535216
H 3.4665445070422534 3.0664207042253535 1.4881370422535212
C 1.2973745070422538 4.282440704225354 0.8488370422535213
H 1.7592145070422538 3.7367207042253527 0.02653704225352116
H 0.23311450704225378 4.4484607042253534 0.6605570422535213
H 1.7921845070422535 5.251370704225354 0.9736770422535213
C 0.7724845070422537 4.194670704225353 3.2772470422535216
H -0.2956954929577462 4.278220704225354 3.057857042253521
H 0.9298945070422537 3.612620704225354 4.190337042253521
H 1.2046345070422537 5.193640704225353 3.3918370422535213
N 2.876084507042253 -2.324759295774647 -2.4576629577464786
N 1.4527845070422536 3.504690704225353 2.1388470422535213
C -3.593905492957746 -3.637819295774647 0.8297870422535213
H -2.8952554929577463 -1.8680692957746468 1.7595270422535212
H -5.022615492957747 -1.2402792957746467 1.1579970422535213
H -4.898275492957747 -1.7933092957746464 -0.48931295774647876
H -3.883675492957746 0.07871070422535364 -1.2758929577464788
H -3.8751654929577466 -4.038529295774646 -0.1505529577464788
H -4.4603554929577465 -3.7321892957746465 1.4932570422535212
H -2.7953554929577464 -4.271929295774647 1.2313670422535212
H -5.648775492957746 1.147700704225353 0.9733970422535213
H -6.189795492957747 0.5254307042253537 -0.5943629577464788
H -5.2178854929577465 2.002970704225354 -0.5139729577464787
C 3.6710445070422537 1.0263707042253536 -0.27764295774647874
O 2.7356545070422538 1.6631507042253526 -0.7327029577464788
O 3.650814507042253 0.3883007042253537 0.7790570422535212
O 4.756604507042254 0.8696707042253538 -0.8334829577464786
O -6.365005772966995 -5.090532953909006 -2.7393213655820308
H -6.674777761429179 -5.200426958484649 -1.8277666607932757
H -7.000277096637811 -4.471464205556736 -3.1293805590835855
O -8.696288018004106 11.215668867019346 -1.0575025124509736
H -7.841764883655362 11.458158004703353 -1.444744798194752
H -9.293536876540026 11.9213122849633 -1.3478869335033261
O 9.019445381516514 1.0566691031843778 -4.440618039842977
H 9.09013515514462 0.9610572055933747 -3.4789379070319386
H 9.50811593147468 0.29545490386876655 -4.7880600935208175
O -1.5872467885754407 -7.284909620986661 -0.685300883270688
H -1.668861730104272 -7.248419357239782 0.2795694804937557
H -2.378350136339945 -7.767206835131191 -0.9690381467455762
O 3.644200172815313 10.228912257072468 2.1825668539076584
H 4.139386009338027 10.502352806385534 2.969325146014369
H 3.340826813183687 9.33379786773274 2.3963349033509433
O -4.76078603779353 0.6481413829545488 -12.794135914779828
H -4.197142457242107 1.0913248014557277 -13.445950097326346
H -5.500847700658452 1.26108964265448 -12.669375703220098
O 6.094466864340562 -6.248154881428419 10.954168838181449
H 6.581998378316079 -6.376279760753839 10.126603496302883
H 6.697445040723318 -6.582234050696414 11.635175719033128
O 4.186371193006668 5.8176374521942 -7.5354640918805975
H 3.9145668667283484 4.898040810566551 -7.3960661656996844
H 4.885094894218939 5.756402317247005 -8.204042727429343
O -3.665196560386692 -7.047499290675368 6.967561990776057
H -3.699878258672562 -6.729403650276063 7.882209299995827
H -4.135117474244579 -7.894440253340816 6.996324549394718
O 2.460015485265723 -7.234082049199712 1.376937773877553
H 2.555075132975138 -6.646921290892546 0.6119715888853552
H 2.811629658777026 -6.714844372480661 2.1156675298515264
O -6.920853135529994 -9.168415590316066 3.3136998580848656
H -7.535092518064471 -8.68611310614509 3.88733881388038
H -7.1917098412436875 -8.917915196979434 2.4176819217643266
O 6.123790857922046 -6.557378022671125 0.7234291682099059
H 6.178567991231144 -7.429412325496882 0.30447451999409525
H 5.609021914795551 -6.716559884601286 1.5288085907958542
O -3.9936774042962826 -10.230492535896522 -5.933512948204457
H -4.459862918121894 -10.359549291535947 -5.093880422975129
H -3.32566215230299 -10.93239496883753 -5.940622240421686
O 5.317366208194307 -2.4991336909778155 8.977834954388454
H 5.265105047883936 -2.8654222431189975 9.87341790676826
H 5.191793885258718 -1.5469829351780522 9.10668554322102
O 6.048254273746965 -10.86581875579689 -3.1636515890825683
H 6.2530215053424385 -11.05495859270274 -4.091694616026877
H 5.835041825312773 -9.920577881346034 -3.1589520784613634
O -9.09152290496598 -3.8157370172148957 -8.271330041460411
H -8.870226765594628 -3.969641076766762 -9.20208721497711
H -10.028441357040823 -4.055483799657988 -8.210772310576017
O 2.627111150657371 0.8783559857372687 -12.843351771511637
H 2.8545527101573844 1.5125010138168542 -12.1468621611985
H 1.7848190808119022 1.206329030754536 -13.192550418584528
O 8.812112343043756 0.9321209579151326 -6.916290449563226
H 9.038845546657019 0.011669346543015852 -7.117109378954211
H 8.769647364225621 0.9569260556665613 -5.948538737087595
O 10.050551859060324 2.939103962074421 8.451212776998632
H 9.968366015913338 2.9011084419204947 9.415976574274657
H 9.137639536800751 3.0398033644066524 8.142323368736443
O -2.088796856405741 -6.3425032228228595 -3.3616479320871253
H -1.9059977398641466 -6.101798599084779 -2.4409888616366557
H -2.9074341980411393 -5.867589769059155 -3.569619224852154
O -3.7196288422013186 -4.373147000187073 -7.736097385327869
H -4.278884331410729 -4.631916312579449 -6.988274480053418
H -4.283824856659994 -4.516194716887815 -8.510811624461015
O 7.142747585713624 -3.3732289698724474 -3.1632290092025883
H 7.305049633687933 -2.4770164627937437 -3.4940288645215576
H 7.168875687797169 -3.9249113721018505 -3.9594235794251613
O -4.173834408586392 -7.97184404045455 2.959646655947971
H -3.423303399436488 -7.5166483719186195 2.5491987730802976
H -4.948604991813619 -7.5834538743531255 2.5262351118683877
O 10.443165510900641 4.086196834706982 -2.8723345880857796
H 10.630998277942547 4.230395889324157 -3.811958364484023
H 11.16122700889424 4.550199381962255 -2.416208217942806
C 11.772853446757567 4.496670488932737 0.014974799850661302
O 11.701426720477913 5.129757039684309 -0.9983947770216899
O 11.844280173037223 3.8635839381811645 1.0283443767230125