146

C -5.3564454929577465 1.0091607042253532 -0.0734429577464788
C -4.079135492957747 0.16955070422535368 -0.19788295774647868
C -4.333545492957747 -1.2789292957746463 0.3017270422535212
C -3.1403854929577464 -2.1745492957746464 0.7330270422535212
C -2.905235492957746 0.902300704225353 0.41966704225352136
C -2.7423854929577463 1.056130704225354 1.8024770422535212
C -1.8861754929577463 1.3499307042253532 -0.4326129577464788
C -1.5304554929577463 1.5279207042253526 2.3254170422535214
H -3.5237954929577464 0.7301007042253529 2.484817042253521
C -0.6776454929577462 1.8010507042253527 0.08546704225352131
H -1.9759254929577463 1.2426607042253535 -1.5115229577464788
C -0.4680254929577463 1.8513207042253539 1.4698070422535212
H -1.3950654929577464 1.5446707042253527 3.404047042253521
H 0.1461845070422536 1.9972507042253538 -0.6030529577464789
C -1.8679654929577463 -2.0866092957746467 -0.08765295774647863
C -0.6628654929577462 -1.814079295774647 0.5787970422535212
C -1.8438954929577462 -2.213429295774647 -1.4808029577464787
C 0.5129345070422537 -1.5763292957746469 -0.13022295774647863
H -0.6401854929577462 -1.7032692957746463 1.6609470422535213
C -0.6547954929577462 -1.9962392957746466 -2.1933129577464787
H -2.7578654929577464 -2.4351492957746466 -2.026182957746479
C 0.5308845070422537 -1.645769295774647 -1.5261029577464789
H 1.4044045070422537 -1.2610992957746463 0.41551704225352126
H -0.6795654929577464 -2.0467992957746466 -3.2793129577464786
C 1.7843245070422535 -1.2521692957746469 -2.2771629577464787
H 1.4981245070422535 -0.9384492957746469 -3.290282957746479
H 2.241984507042254 -0.38631929577464685 -1.8135029577464787
C 0.9385645070422537 2.0647807042253534 1.9815670422535212
H 1.0508945070422537 1.5807407042253532 2.9609770422535213
H 1.6053245070422537 1.5496207042253536 1.3096170422535214
C 3.9676945070422533 -1.6881692957746468 -3.314052957746479
H 4.795084507042254 -2.398849295774647 -3.4044129577464783
H 3.548404507042253 -1.4816192957746468 -4.303802957746479
H 4.307714507042253 -0.7637192957746466 -2.851282957746479
C 2.344694507042253 -3.565079295774647 -3.101282957746479
H 1.6334345070422536 -4.047909295774646 -2.4251929577464786
H 1.8561845070422536 -3.293109295774647 -4.041792957746479
H 3.1808045070422537 -4.243519295774647 -3.298122957746479
C 3.5156645070422536 -2.648489295774647 -1.1110629577464786
H 3.9311845070422535 -1.748249295774647 -0.6771029577464787
H 2.767184507042254 -3.1044092957746465 -0.45972295774647876
H 4.319224507042254 -3.371819295774647 -1.2863129577464787
C 2.963994507042253 3.381090704225353 2.401027042253521
H 3.3337945070422537 4.369820704225353 2.6912870422535216
H 3.120994507042253 2.671350704225353 3.2183370422535216
H 3.4665445070422534 3.0664207042253535 1.4881370422535212
C 1.2973745070422538 4.282440704225354 0.8488370422535213
H 1.7592145070422538 3.7367207042253527 0.02653704225352116
H 0.23311450704225378 4.4484607042253534 0.6605570422535213
H 1.7921845070422535 5.251370704225354 0.9736770422535213
C 0.7724845070422537 4.194670704225353 3.2772470422535216
H -0.2956954929577462 4.278220704225354 3.057857042253521
H 0.9298945070422537 3.612620704225354 4.190337042253521
H 1.2046345070422537 5.193640704225353 3.3918370422535213
N 2.876084507042253 -2.324759295774647 -2.4576629577464786
N 1.4527845070422536 3.504690704225353 2.1388470422535213
C -3.593905492957746 -3.637819295774647 0.8297870422535213
H -2.8952554929577463 -1.8680692957746468 1.7595270422535212
H -5.022615492957747 -1.2402792957746467 1.1579970422535213
H -4.898275492957747 -1.7933092957746464 -0.48931295774647876
H -3.883675492957746 0.07871070422535364 -1.2758929577464788
H -3.8751654929577466 -4.038529295774646 -0.1505529577464788
H -4.4603554929577465 -3.7321892957746465 1.4932570422535212
H -2.7953554929577464 -4.271929295774647 1.2313670422535212
H -5.648775492957746 1.147700704225353 0.9733970422535213
H -6.189795492957747 0.5254307042253537 -0.5943629577464788
H -5.2178854929577465 2.002970704225354 -0.5139729577464787
C 3.6710445070422537 1.0263707042253536 -0.27764295774647874
O 2.7356545070422538 1.6631507042253526 -0.7327029577464788
O 3.650814507042253 0.3883007042253537 0.7790570422535212
O 4.756604507042254 0.8696707042253538 -0.8334829577464786
O -2.7864285002951115 10.197968156063098 -0.5515708052343332
H -2.150185657984587 10.902580070260328 -0.7456956436243243
H -2.404401370686875 9.741841280110208 0.21325956130242157
O 5.951098668552797 -5.2403181286476 -6.2235051110209465
H 5.1891290018008345 -5.302381854516806 -6.818918982022568
H 5.5588479623340605 -5.031671720238112 -5.362361682764815
O 0.588600923169956 3.26284929561801 -11.960073003884759
H 0.6260002392623509 3.2969952745081583 -12.927752031342445
H 0.4108013907236088 4.179271901039941 -11.700229052957399
O 10.664320919590274 3.93037728615415 9.184642896430246
H 10.442141818093816 3.021817465526561 9.437867808513145
H 9.940664126559735 4.19294647886387 8.596136134157696
O 0.4608583785226952 1.740805721051204 -3.584098577907379
H 1.1704035633743084 2.016895035286915 -4.183504682413119
H -0.2949385696460135 1.587769977944956 -4.170880461379239
O 9.531147568643238 -7.174059335683732 11.246459025477346
H 9.199412089852537 -7.499615644777613 12.096713116100073
H 9.876137035970434 -6.292182678852594 11.451977330914197
O 0.6945404503864898 -8.27556553046155 0.6152094151996068
H 0.2059366305186292 -9.111876825555457 0.5866247723141507
H 0.33646677781237333 -7.76971146005376 -0.12967772307112035
O 6.495783511791501 -1.983169471034123 0.04884039486551228
H 6.416973028167953 -2.29834515688507 0.9617590942136024
H 7.329106432170896 -1.4886986799390252 0.04305321730257483
O -0.8163235131817692 -3.6264842512473145 7.790602698095169
H -0.7863734376085709 -3.95244651352738 6.878561606124845
H 0.10904632318867336 -3.4282413374245957 7.998814987249335
O -10.507696826594675 0.26619394192253054 3.9007403152723104
H -10.491692681452802 0.30567397718970035 4.868806713332682
H -10.122762074861502 1.1118226406255403 3.6256052845365345
O 9.20965512963597 0.9829784764989585 -4.196123657627567
H 9.41716944006359 1.0264200931019665 -5.141648905209389
H 9.475806341170216 1.851175446552998 -3.8579528456289007
O 9.309234583569046 -4.285693269306218 -7.031578422094411
H 9.696387502055025 -4.926103884909901 -7.647170996797762
H 9.727782365536095 -4.494305117975009 -6.182896623594258
O 6.162128569462248 -3.000875260468219 12.303721101131094
H 6.866223804539602 -3.2001903871108146 11.668511893757008
H 5.772710774555473 -3.8660649874683255 12.50060294794138
O -6.238785492339234 0.2213289165214496 7.573598533003635
H -6.664834271108141 0.08026692305200811 6.714790458397933
H -6.175467135033957 -0.6683112360510579 7.952403402110311
O 3.192202405223013 -2.2186689968232254 4.134259158525111
H 4.089564693585835 -2.00497156574974 3.837540961784782
H 3.3234286547777234 -2.6201202964587473 5.0063706592798916
O -9.056111526317522 1.0039122390830117 -6.561426740645636
H -9.565126678069712 0.18975336333027254 -6.69187311744367
H -8.254931129644872 0.8660739805485829 -7.088752570443162
O 13.32138151826998 -1.3819674514770135 -0.45892638458801915
H 14.120978985345776 -0.8346247658380177 -0.45370795345755166
H 13.442413836263858 -1.9658691726790227 -1.2227142492980838
O -6.453879154268523 3.4085778597910315 4.777957123823287
H -5.851429212591446 3.7936345421477813 4.123929008184747
H -7.333988112038574 3.669500223521527 4.467651328102026
O 12.620061833099975 1.0773517917919218 6.097040351763171
H 13.24095372453234 0.4952137408353978 6.560263738135319
H 13.184585024572037 1.7683145743548547 5.719090694132571
O 4.0209074706885435 11.697985963138915 5.810723902765736
H 3.749038131065447 11.843156395827133 6.72940772462504
H 3.4878186561851234 12.330567613464826 5.3061263246678205
O 8.302650500868392 -5.47393986914346 -4.817594332492999
H 8.354231290842826 -5.430337277952312 -3.8509477615855996
H 9.198986329819771 -5.7228965874913404 -5.0888222411371835
O 3.5653081959892026 5.193249663433096 -7.316109035838447
H 3.9847443528227124 5.335533561056938 -8.177965148955774
H 2.900466221453069 4.509915954508995 -7.489320280978382
O -5.571484398943706 -4.656126066240159 -9.608225299123562
H -5.588920747083842 -3.692199928903695 -9.70574315606855
H -5.659717883999372 -4.9847996879473495 -10.515501688548975
O 2.2536097121268903 -5.931871251616164 -6.536682729020683
H 2.252178843079684 -6.015956956885297 -7.502029766972924
H 1.531782538973525 -6.511396057435035 -6.25018931576652
C 7.10011992118138 -6.715122533965027 1.6692435549205853
O 6.698298136745294 -7.8426446195607555 1.6764169325390021
O 7.501941705617468 -5.587600448369298 1.6620701773021684