146

C -5.3564454929577465 1.0091607042253532 -0.0734429577464788
C -4.079135492957747 0.16955070422535368 -0.19788295774647868
C -4.333545492957747 -1.2789292957746463 0.3017270422535212
C -3.1403854929577464 -2.1745492957746464 0.7330270422535212
C -2.905235492957746 0.902300704225353 0.41966704225352136
C -2.7423854929577463 1.056130704225354 1.8024770422535212
C -1.8861754929577463 1.3499307042253532 -0.4326129577464788
C -1.5304554929577463 1.5279207042253526 2.3254170422535214
H -3.5237954929577464 0.7301007042253529 2.484817042253521
C -0.6776454929577462 1.8010507042253527 0.08546704225352131
H -1.9759254929577463 1.2426607042253535 -1.5115229577464788
C -0.4680254929577463 1.8513207042253539 1.4698070422535212
H -1.3950654929577464 1.5446707042253527 3.404047042253521
H 0.1461845070422536 1.9972507042253538 -0.6030529577464789
C -1.8679654929577463 -2.0866092957746467 -0.08765295774647863
C -0.6628654929577462 -1.814079295774647 0.5787970422535212
C -1.8438954929577462 -2.213429295774647 -1.4808029577464787
C 0.5129345070422537 -1.5763292957746469 -0.13022295774647863
H -0.6401854929577462 -1.7032692957746463 1.6609470422535213
C -0.6547954929577462 -1.9962392957746466 -2.1933129577464787
H -2.7578654929577464 -2.4351492957746466 -2.026182957746479
C 0.5308845070422537 -1.645769295774647 -1.5261029577464789
H 1.4044045070422537 -1.2610992957746463 0.41551704225352126
H -0.6795654929577464 -2.0467992957746466 -3.2793129577464786
C 1.7843245070422535 -1.2521692957746469 -2.2771629577464787
H 1.4981245070422535 -0.9384492957746469 -3.290282957746479
H 2.241984507042254 -0.38631929577464685 -1.8135029577464787
C 0.9385645070422537 2.0647807042253534 1.9815670422535212
H 1.0508945070422537 1.5807407042253532 2.9609770422535213
H 1.6053245070422537 1.5496207042253536 1.3096170422535214
C 3.9676945070422533 -1.6881692957746468 -3.314052957746479
H 4.795084507042254 -2.398849295774647 -3.4044129577464783
H 3.548404507042253 -1.4816192957746468 -4.303802957746479
H 4.307714507042253 -0.7637192957746466 -2.851282957746479
C 2.344694507042253 -3.565079295774647 -3.101282957746479
H 1.6334345070422536 -4.047909295774646 -2.4251929577464786
H 1.8561845070422536 -3.293109295774647 -4.041792957746479
H 3.1808045070422537 -4.243519295774647 -3.298122957746479
C 3.5156645070422536 -2.648489295774647 -1.1110629577464786
H 3.9311845070422535 -1.748249295774647 -0.6771029577464787
H 2.767184507042254 -3.1044092957746465 -0.45972295774647876
H 4.319224507042254 -3.371819295774647 -1.2863129577464787
C 2.963994507042253 3.381090704225353 2.401027042253521
H 3.3337945070422537 4.369820704225353 2.6912870422535216
H 3.120994507042253 2.671350704225353 3.2183370422535216
H 3.4665445070422534 3.0664207042253535 1.4881370422535212
C 1.2973745070422538 4.282440704225354 0.8488370422535213
H 1.7592145070422538 3.7367207042253527 0.02653704225352116
H 0.23311450704225378 4.4484607042253534 0.6605570422535213
H 1.7921845070422535 5.251370704225354 0.9736770422535213
C 0.7724845070422537 4.194670704225353 3.2772470422535216
H -0.2956954929577462 4.278220704225354 3.057857042253521
H 0.9298945070422537 3.612620704225354 4.190337042253521
H 1.2046345070422537 5.193640704225353 3.3918370422535213
N 2.876084507042253 -2.324759295774647 -2.4576629577464786
N 1.4527845070422536 3.504690704225353 2.1388470422535213
C -3.593905492957746 -3.637819295774647 0.8297870422535213
H -2.8952554929577463 -1.8680692957746468 1.7595270422535212
H -5.022615492957747 -1.2402792957746467 1.1579970422535213
H -4.898275492957747 -1.7933092957746464 -0.48931295774647876
H -3.883675492957746 0.07871070422535364 -1.2758929577464788
H -3.8751654929577466 -4.038529295774646 -0.1505529577464788
H -4.4603554929577465 -3.7321892957746465 1.4932570422535212
H -2.7953554929577464 -4.271929295774647 1.2313670422535212
H -5.648775492957746 1.147700704225353 0.9733970422535213
H -6.189795492957747 0.5254307042253537 -0.5943629577464788
H -5.2178854929577465 2.002970704225354 -0.5139729577464787
C 3.6710445070422537 1.0263707042253536 -0.27764295774647874
O 2.7356545070422538 1.6631507042253526 -0.7327029577464788
O 3.650814507042253 0.3883007042253537 0.7790570422535212
O 4.756604507042254 0.8696707042253538 -0.8334829577464786
O 9.697969976926453 -7.12135481227452 7.006884263133095
H 9.306987758762494 -6.358776212976101 7.459182993920233
H 8.995122145512028 -7.788236400974444 7.022240591766753
O 2.8113756058456563 3.5179310889019546 11.934394776483003
H 2.9236115974152286 3.47232235065842 12.895794943995067
H 2.009468508006682 4.04915282432264 11.81730327998514
O 13.499516386972731 -3.614342744922816 0.2545277402042134
H 13.907723845550835 -3.2038825207116037 1.0316097384525889
H 12.736404696985318 -3.048206824333536 0.06449455277874416
O -6.644761323965196 7.981530128379306 8.994232466867109
H -5.830242065318364 8.199072797691983 8.516528666147739
H -7.335189917158072 8.035809413507321 8.316497960435793
O 4.025009705747026 -2.598656961828735 -7.054048523191854
H 4.679962371909424 -3.2181021921439963 -6.698672709965291
H 3.178124323156546 -3.049002725629914 -6.9164411611762
O -1.0096264611729282 -3.0626391867579743 -6.346782582993032
H -0.8479976057547944 -2.578665107760864 -5.5230031459741635
H -1.869740031551798 -3.4857252634419176 -6.204779899686341
O 9.212025639945326 -0.09978670689924041 6.155159875307812
H 8.575517706760312 -0.17470566463406367 6.881941931817515
H 8.856663015011703 0.6147672461888294 5.605530912073068
O -0.5552451188486539 -5.565069413597253 0.10145184552646824
H -0.2728555438724923 -5.382260702233041 -0.8072859933985652
H -0.2459187542364078 -4.7951977603953155 0.6020282952840323
O -7.150061479582222 6.113964161459113 2.862246382165023
H -7.5392121781318675 6.7907967729172585 3.436203442218361
H -6.3452760841726565 6.531540907664514 2.520322307750862
O -5.5537914289059716 9.42846749984138 -5.838402490081478
H -4.711028693169315 9.433071053480095 -5.360179597020551
H -5.442368265464094 10.112528141208529 -6.515608412885589
O -3.464377165369444 -2.018781205879332 11.68050940180471
H -3.155739509113025 -1.257324107654912 12.194214805323295
H -3.9946299228712236 -2.5277285092394184 12.311989092582056
O 3.3666353160411697 -4.613098849849304 -10.02566553268394
H 2.791123656493951 -3.8474914414508863 -9.878699608638033
H 2.791165966743361 -5.374275526604463 -9.85712165387866
O 3.4077078439262785 8.15236135515665 -2.3771585996448614
H 2.6300847076222924 7.716804074302974 -1.9969488287550203
H 3.948825110989489 7.419230227277149 -2.706814172812027
O -8.33660416125056 0.2604992411488847 2.14397279368687
H -8.706049295294214 -0.14071483467153723 1.3430327739631507
H -8.982103957603993 0.043829123929994385 2.8334262130793824
O 0.9452029802412403 8.70789359516524 0.9848863075637836
H 0.9621729890027728 8.704436248150301 0.01603780420825221
H 1.8800637569972216 8.75635604220361 1.2351834581873078
O -2.232585589249839 1.9318439052698282 -7.58855234783015
H -1.3040254568364542 1.7649555435660824 -7.809667051367201
H -2.7154849053288634 1.6548522922505335 -8.381676449813805
O -0.16358128152609597 6.962995412829083 5.626574926365194
H 0.3689663093780029 7.176679260758333 6.407407580303533
H 0.2623081448219231 7.457515194451917 4.910313572941277
O -0.5295644138898886 -3.131381054989606 9.69367272264414
H -0.5513446049860563 -3.603009271060938 10.53987589327232
H 0.15676680096017126 -2.4587693508826822 9.81819140927719
O -9.635770525505574 1.6420770426803113 2.6517439543518693
H -10.17424162859534 1.8174108743331958 1.8654397667023233
H -8.724550233829882 1.7494068657359767 2.3401034027201795
O -7.06307970334073 9.2095360305209 -8.488576856129237
H -7.825675549743218 9.764460655079066 -8.266150254733057
H -6.301773656769303 9.723068628251662 -8.179288448939957
O -10.078203999230608 -3.2001625826010662 9.746732751878184
H -9.994638995411751 -2.8379005502806858 10.641579368330335
H -9.596174459163455 -4.0397421784822685 9.788152179476947
O 6.227903438272847 -5.153250408605522 -2.229825166102704
H 5.839944933902533 -5.347879174493759 -3.0961825976952153
H 5.630025982299761 -4.49276992969246 -1.8486821103953726
O -4.240643221688931 4.589444068997013 11.536988109980864
H -4.550722395727327 5.328205004336122 10.991964676407084
H -3.507916540274237 4.213350538635224 11.026471498044469
O -11.062635122655267 -1.944251101554717 -5.861852743439422
H -10.603789373470125 -1.79043306677314 -6.701357328019316
H -11.931619366505476 -2.2802318780190687 -6.128208231624834
C -7.386475184797375 7.166366256910449 -3.4090943591564407
O -6.539145705028536 7.081510319612001 -4.250313997491086
O -8.233804664566211 7.251222194208896 -2.5678747208217936