146

C -5.3564454929577465 1.0091607042253532 -0.0734429577464788
C -4.079135492957747 0.16955070422535368 -0.19788295774647868
C -4.333545492957747 -1.2789292957746463 0.3017270422535212
C -3.1403854929577464 -2.1745492957746464 0.7330270422535212
C -2.905235492957746 0.902300704225353 0.41966704225352136
C -2.7423854929577463 1.056130704225354 1.8024770422535212
C -1.8861754929577463 1.3499307042253532 -0.4326129577464788
C -1.5304554929577463 1.5279207042253526 2.3254170422535214
H -3.5237954929577464 0.7301007042253529 2.484817042253521
C -0.6776454929577462 1.8010507042253527 0.08546704225352131
H -1.9759254929577463 1.2426607042253535 -1.5115229577464788
C -0.4680254929577463 1.8513207042253539 1.4698070422535212
H -1.3950654929577464 1.5446707042253527 3.404047042253521
H 0.1461845070422536 1.9972507042253538 -0.6030529577464789
C -1.8679654929577463 -2.0866092957746467 -0.08765295774647863
C -0.6628654929577462 -1.814079295774647 0.5787970422535212
C -1.8438954929577462 -2.213429295774647 -1.4808029577464787
C 0.5129345070422537 -1.5763292957746469 -0.13022295774647863
H -0.6401854929577462 -1.7032692957746463 1.6609470422535213
C -0.6547954929577462 -1.9962392957746466 -2.1933129577464787
H -2.7578654929577464 -2.4351492957746466 -2.026182957746479
C 0.5308845070422537 -1.645769295774647 -1.5261029577464789
H 1.4044045070422537 -1.2610992957746463 0.41551704225352126
H -0.6795654929577464 -2.0467992957746466 -3.2793129577464786
C 1.7843245070422535 -1.2521692957746469 -2.2771629577464787
H 1.4981245070422535 -0.9384492957746469 -3.290282957746479
H 2.241984507042254 -0.38631929577464685 -1.8135029577464787
C 0.9385645070422537 2.0647807042253534 1.9815670422535212
H 1.0508945070422537 1.5807407042253532 2.9609770422535213
H 1.6053245070422537 1.5496207042253536 1.3096170422535214
C 3.9676945070422533 -1.6881692957746468 -3.314052957746479
H 4.795084507042254 -2.398849295774647 -3.4044129577464783
H 3.548404507042253 -1.4816192957746468 -4.303802957746479
H 4.307714507042253 -0.7637192957746466 -2.851282957746479
C 2.344694507042253 -3.565079295774647 -3.101282957746479
H 1.6334345070422536 -4.047909295774646 -2.4251929577464786
H 1.8561845070422536 -3.293109295774647 -4.041792957746479
H 3.1808045070422537 -4.243519295774647 -3.298122957746479
C 3.5156645070422536 -2.648489295774647 -1.1110629577464786
H 3.9311845070422535 -1.748249295774647 -0.6771029577464787
H 2.767184507042254 -3.1044092957746465 -0.45972295774647876
H 4.319224507042254 -3.371819295774647 -1.2863129577464787
C 2.963994507042253 3.381090704225353 2.401027042253521
H 3.3337945070422537 4.369820704225353 2.6912870422535216
H 3.120994507042253 2.671350704225353 3.2183370422535216
H 3.4665445070422534 3.0664207042253535 1.4881370422535212
C 1.2973745070422538 4.282440704225354 0.8488370422535213
H 1.7592145070422538 3.7367207042253527 0.02653704225352116
H 0.23311450704225378 4.4484607042253534 0.6605570422535213
H 1.7921845070422535 5.251370704225354 0.9736770422535213
C 0.7724845070422537 4.194670704225353 3.2772470422535216
H -0.2956954929577462 4.278220704225354 3.057857042253521
H 0.9298945070422537 3.612620704225354 4.190337042253521
H 1.2046345070422537 5.193640704225353 3.3918370422535213
N 2.876084507042253 -2.324759295774647 -2.4576629577464786
N 1.4527845070422536 3.504690704225353 2.1388470422535213
C -3.593905492957746 -3.637819295774647 0.8297870422535213
H -2.8952554929577463 -1.8680692957746468 1.7595270422535212
H -5.022615492957747 -1.2402792957746467 1.1579970422535213
H -4.898275492957747 -1.7933092957746464 -0.48931295774647876
H -3.883675492957746 0.07871070422535364 -1.2758929577464788
H -3.8751654929577466 -4.038529295774646 -0.1505529577464788
H -4.4603554929577465 -3.7321892957746465 1.4932570422535212
H -2.7953554929577464 -4.271929295774647 1.2313670422535212
H -5.648775492957746 1.147700704225353 0.9733970422535213
H -6.189795492957747 0.5254307042253537 -0.5943629577464788
H -5.2178854929577465 2.002970704225354 -0.5139729577464787
C 3.6710445070422537 1.0263707042253536 -0.27764295774647874
O 2.7356545070422538 1.6631507042253526 -0.7327029577464788
O 3.650814507042253 0.3883007042253537 0.7790570422535212
O 4.756604507042254 0.8696707042253538 -0.8334829577464786
O 6.512502885717947 -0.09753024224193457 7.927635080719133
H 6.901558417678233 -0.8832490479765789 8.340247620841248
H 7.255071920098063 0.31309952897642 7.459728717790667
O -0.19802832467475806 -3.5321884482434927 13.962944798647193
H -1.0236881394714343 -3.761866061814918 14.415163131926658
H 0.4920814603776451 -3.7728864834649216 14.599164009859392
O -10.608785157790074 -2.099756400099232 -4.9312963170975515
H -10.683528964536885 -1.693313025577293 -4.054834963950583
H -9.793210960504661 -2.620403715757552 -4.879075193784805
O -2.2541570342897814 -4.667296455588184 6.192185554403764
H -2.1106895158384886 -5.340861443723729 5.51050041094867
H -2.14126424455284 -3.8286776258154873 5.720024966599063
O 6.269300062749929 -3.8114360438287913 -9.23950611713825
H 5.550214066464786 -4.425234664919016 -9.451953615580436
H 5.930193386600266 -2.9478605214403175 -9.519159337434749
O 0.7414528703292225 -2.0697449437412057 5.112384250507709
H 0.8266044209095917 -2.018330412580693 6.07626864000642
H 1.2564665641376036 -2.855011864882481 4.873472756328068
O 1.2395340971056839 10.293401512264381 -5.356316062753026
H 1.1044401178199719 10.295003908115051 -4.396777420494003
H 1.813350185416866 9.527968054430664 -5.510616622453796
O -8.025019519323369 6.656203897061538 -0.07403685699144935
H -8.148682221598627 6.364730972788189 0.8417788599415628
H -8.590478173224506 6.06012277184347 -0.5877544323060166
O -4.905204015409989 -11.236570582801724 -3.851903529385813
H -5.487442705311516 -11.629297118288518 -3.184272393797982
H -5.46409729043109 -10.578592055034576 -4.291976828318577
O 4.639399224385665 6.62960382614523 2.617414454884222
H 4.470118253415867 6.62255414501541 1.6633381414986042
H 4.0574795127556715 5.936385289948997 2.9635061401215568
O 4.782633638937547 -13.151413918131393 0.35840259518004736
H 4.122097710711094 -13.860311984215631 0.3695010781415027
H 4.275783391178084 -12.355739974595243 0.5796891655448242
O -6.234122095876943 8.887408314146136 -0.6570760748840145
H -7.045506901560038 8.725542866104586 -1.1614783258077335
H -5.690065813256721 9.42246335096473 -1.2543036807567804
O -6.247333465736759 5.2498616893277585 -1.3222366945749566
H -6.336549166877545 4.920970099608911 -0.41513237985576823
H -5.514445996410146 4.732067304335324 -1.6879235503331844
O 1.8317376359933597 10.142970200275357 7.535684487656504
H 2.5048964782148255 10.36936499280446 6.876465307144619
H 1.6900447802753606 10.970627193065152 8.019284509600915
O 7.665409974968208 -4.197827446911814 -4.679528341692697
H 7.82375453467783 -4.022125127394543 -5.619221404467248
H 8.319205870634784 -3.6458111711158825 -4.224785664603855
O -0.6805480338524328 3.1468849759879296 12.123538535119993
H -0.9211605319716103 3.6458932813239344 12.918562870505104
H -1.137882670618198 3.6127406905350963 11.40744815846487
O -0.8599116686911614 13.752715128356433 -0.9813463440722567
H -0.5681105165017506 13.702489995658437 -0.058688834198521445
H -1.8041231058112634 13.96083479636648 -0.9172143699955142
O -4.321313425428137 -7.337960279430358 7.680402992210675
H -4.111547347545941 -7.840758524920024 8.481751526746324
H -5.265350173840652 -7.13848352874177 7.769653134403549
O 0.8781019675626904 0.049975815002446744 -10.79228262241965
H 1.514706947784159 -0.36093305426093636 -10.188250042819913
H 0.13561655477534895 -0.5724462076266188 -10.808658880977553
O -5.156851579732834 11.868515322479311 -2.321754197222203
H -5.583767327654559 11.85190514968819 -1.4520218227320476
H -5.839671410983256 11.536877227368029 -2.9240292143216213
O -0.554668301186692 10.102529743251743 -1.2512971704555227
H -0.7754125093227948 9.88865749350674 -2.1702629001012905
H 0.3455366120947776 10.457336756965482 -1.3033071831784508
O -1.6612514930659537 -1.3146748828274164 -8.637446159963986
H -2.3539725536850473 -1.9432672163443248 -8.38451026429371
H -0.8376134650656857 -1.7641898156122235 -8.395539838559811
O 4.623755445685901 -4.259007498492963 7.995927570682399
H 4.785568717332025 -4.295879658175518 7.041242142984081
H 4.32070979336486 -5.152545644306885 8.216641999038886
O 6.1247469017406235 9.189326015411675 3.56089580532127
H 5.823079667431312 8.651661607071237 4.308479393054507
H 5.30989109904249 9.576265489370602 3.206989308345627
C 6.490244655010379 -9.758714671940282 -6.024409362467938
O 5.467653906822685 -10.363360872585005 -5.877680391004105
O 7.512835403198071 -9.15406847129556 -6.17113833393177