146

C -5.3564454929577465 1.0091607042253532 -0.0734429577464788
C -4.079135492957747 0.16955070422535368 -0.19788295774647868
C -4.333545492957747 -1.2789292957746463 0.3017270422535212
C -3.1403854929577464 -2.1745492957746464 0.7330270422535212
C -2.905235492957746 0.902300704225353 0.41966704225352136
C -2.7423854929577463 1.056130704225354 1.8024770422535212
C -1.8861754929577463 1.3499307042253532 -0.4326129577464788
C -1.5304554929577463 1.5279207042253526 2.3254170422535214
H -3.5237954929577464 0.7301007042253529 2.484817042253521
C -0.6776454929577462 1.8010507042253527 0.08546704225352131
H -1.9759254929577463 1.2426607042253535 -1.5115229577464788
C -0.4680254929577463 1.8513207042253539 1.4698070422535212
H -1.3950654929577464 1.5446707042253527 3.404047042253521
H 0.1461845070422536 1.9972507042253538 -0.6030529577464789
C -1.8679654929577463 -2.0866092957746467 -0.08765295774647863
C -0.6628654929577462 -1.814079295774647 0.5787970422535212
C -1.8438954929577462 -2.213429295774647 -1.4808029577464787
C 0.5129345070422537 -1.5763292957746469 -0.13022295774647863
H -0.6401854929577462 -1.7032692957746463 1.6609470422535213
C -0.6547954929577462 -1.9962392957746466 -2.1933129577464787
H -2.7578654929577464 -2.4351492957746466 -2.026182957746479
C 0.5308845070422537 -1.645769295774647 -1.5261029577464789
H 1.4044045070422537 -1.2610992957746463 0.41551704225352126
H -0.6795654929577464 -2.0467992957746466 -3.2793129577464786
C 1.7843245070422535 -1.2521692957746469 -2.2771629577464787
H 1.4981245070422535 -0.9384492957746469 -3.290282957746479
H 2.241984507042254 -0.38631929577464685 -1.8135029577464787
C 0.9385645070422537 2.0647807042253534 1.9815670422535212
H 1.0508945070422537 1.5807407042253532 2.9609770422535213
H 1.6053245070422537 1.5496207042253536 1.3096170422535214
C 3.9676945070422533 -1.6881692957746468 -3.314052957746479
H 4.795084507042254 -2.398849295774647 -3.4044129577464783
H 3.548404507042253 -1.4816192957746468 -4.303802957746479
H 4.307714507042253 -0.7637192957746466 -2.851282957746479
C 2.344694507042253 -3.565079295774647 -3.101282957746479
H 1.6334345070422536 -4.047909295774646 -2.4251929577464786
H 1.8561845070422536 -3.293109295774647 -4.041792957746479
H 3.1808045070422537 -4.243519295774647 -3.298122957746479
C 3.5156645070422536 -2.648489295774647 -1.1110629577464786
H 3.9311845070422535 -1.748249295774647 -0.6771029577464787
H 2.767184507042254 -3.1044092957746465 -0.45972295774647876
H 4.319224507042254 -3.371819295774647 -1.2863129577464787
C 2.963994507042253 3.381090704225353 2.401027042253521
H 3.3337945070422537 4.369820704225353 2.6912870422535216
H 3.120994507042253 2.671350704225353 3.2183370422535216
H 3.4665445070422534 3.0664207042253535 1.4881370422535212
C 1.2973745070422538 4.282440704225354 0.8488370422535213
H 1.7592145070422538 3.7367207042253527 0.02653704225352116
H 0.23311450704225378 4.4484607042253534 0.6605570422535213
H 1.7921845070422535 5.251370704225354 0.9736770422535213
C 0.7724845070422537 4.194670704225353 3.2772470422535216
H -0.2956954929577462 4.278220704225354 3.057857042253521
H 0.9298945070422537 3.612620704225354 4.190337042253521
H 1.2046345070422537 5.193640704225353 3.3918370422535213
N 2.876084507042253 -2.324759295774647 -2.4576629577464786
N 1.4527845070422536 3.504690704225353 2.1388470422535213
C -3.593905492957746 -3.637819295774647 0.8297870422535213
H -2.8952554929577463 -1.8680692957746468 1.7595270422535212
H -5.022615492957747 -1.2402792957746467 1.1579970422535213
H -4.898275492957747 -1.7933092957746464 -0.48931295774647876
H -3.883675492957746 0.07871070422535364 -1.2758929577464788
H -3.8751654929577466 -4.038529295774646 -0.1505529577464788
H -4.4603554929577465 -3.7321892957746465 1.4932570422535212
H -2.7953554929577464 -4.271929295774647 1.2313670422535212
H -5.648775492957746 1.147700704225353 0.9733970422535213
H -6.189795492957747 0.5254307042253537 -0.5943629577464788
H -5.2178854929577465 2.002970704225354 -0.5139729577464787
C 3.6710445070422537 1.0263707042253536 -0.27764295774647874
O 2.7356545070422538 1.6631507042253526 -0.7327029577464788
O 3.650814507042253 0.3883007042253537 0.7790570422535212
O 4.756604507042254 0.8696707042253538 -0.8334829577464786
O 6.548927282339639 1.2652659200383995 0.01969369422211975
H 6.711902293931331 1.3448087580897494 -0.932188356985605
H 7.3404285786693535 0.8188714335415963 0.3561749041486715
O -3.0953594544793948 -7.360083801218989 -3.513475675751307
H -3.479767917394896 -7.202219357846453 -2.6381035788361586
H -2.215726384570189 -7.718435531932196 -3.3216641961236406
O -7.270449956830022 -8.952842909339552 -0.8820633690297779
H -7.917639354697869 -8.883044105084284 -1.5998665224862032
H -6.466628046664645 -9.26857960946527 -1.3215433085398844
O 7.768326275045687 0.2700148711364715 5.443077633659011
H 7.162892928715144 0.8256527568542644 5.956579688188555
H 8.046373032227347 -0.4145646460175929 6.069977011401462
O 1.1304795436799289 8.270957903469887 -0.1720039679298373
H 1.3475192755783083 8.127589302388246 0.7614340620975311
H 1.9391062979211071 8.017476723865393 -0.6419316306734679
O 7.0949982476033 -5.426553637924176 -3.5575688542230735
H 7.6247811047462495 -5.117152650711749 -2.8075231820874156
H 7.714785637665606 -5.959600259723471 -4.077844583436066
O 9.059890431876736 6.018457878418724 -2.7874480733870786
H 8.943034933204217 6.618480599074754 -3.5393023704596787
H 9.085781114039417 5.1383976144650285 -3.1921523465136445
O -2.208046854268574 -1.8548471192968894 7.371694268265921
H -2.3623379731948413 -1.3923097332583592 6.534305007505357
H -2.7099140810212425 -1.338560396531157 8.02018424575779
O -11.090193114889457 -7.916229368449326 0.03781630209321052
H -11.754060569568091 -8.28480949578725 0.6398096984440962
H -10.26121010414038 -7.981476577651146 0.5353018937245336
O -1.8056618182705113 -9.81092388207779 -4.3146085849083775
H -2.491028901566004 -9.153776172038565 -4.50798956956104
H -1.353541969064382 -9.455078210472985 -3.5349141292054065
O -6.329495789815678 1.6526702077093738 2.5990576607978024
H -6.723164402776942 1.3053884757476124 3.4135438661535433
H -6.650098409318329 2.566038699818306 2.555081504864236
O 9.023981764064372 -2.627364053846992 -11.614524638527545
H 9.712476699934022 -3.289092562897867 -11.779016159558726
H 9.503179553114814 -1.7851534457648208 -11.618090434795985
O -9.496160067448438 8.224792356109502 -0.9030980018012775
H -9.82249794404761 9.068210129486715 -1.2511172638374004
H -8.556925652220988 8.390124902456433 -0.731441930918852
O 1.1233871290632564 6.081665413569613 -5.0777322519261885
H 0.48957684527337286 6.449008993164898 -5.712011824033246
H 1.4811686317963 5.302366274548813 -5.529005110099073
O -0.47768714166158466 -8.988492933805073 0.8781065170331592
H -1.2106020007803542 -8.812840365065743 1.4871626238724134
H -0.7421141582487718 -9.80151491101452 0.42199736148676825
O 5.086808399328021 8.146343601360734 -2.820508379481196
H 5.770362862428181 8.238466207137481 -2.139895362869882
H 5.0612916474845475 9.016600800477185 -3.2459061310753325
O 9.621136140872006 -4.159683937738489 7.288019176147177
H 10.132195715338428 -3.763442663464147 6.566369454462448
H 9.506532470165425 -5.082218540282089 7.014600358085404
O -10.241231230545457 1.4976461923834004 3.838242677851457
H -10.014492373313372 1.584315461975594 4.776349966614019
H -9.495653464645288 1.0064705752585357 3.4616497246017714
O 7.1003184041355984 7.038269920873325 -0.2996304860649035
H 6.338249281728062 7.313463937150213 -0.8311248538416502
H 6.703922381847061 6.604289998454922 0.4707548491742495
O -6.171384760062083 -6.87566806604192 3.435924696674502
H -6.1392371778689965 -6.449847011720756 2.566091195620448
H -5.256591684918472 -7.152973706826543 3.5947238010747675
O 8.811811015730505 6.222725038800002 1.919904306330533
H 8.371495508642596 6.453269350939663 2.751732973339532
H 8.790650182510957 7.045252220131765 1.4080808998631453
O -2.385199524446484 -9.846610231825682 7.0151967601892755
H -1.9573675285624077 -9.919603632748561 6.148825532816414
H -2.609681193611215 -10.761262814335598 7.243189255278385
O -6.140082091265847 -1.287814689571355 10.116897648084457
H -6.078808658742197 -1.2733334834247279 11.083853292380152
H -5.563489940281706 -0.561866681960431 9.83493501586307
O 9.30874294815372 0.590216996453944 -1.193333476674936
H 9.889220553503787 0.076232690084576 -0.6120992387010782
H 8.423198391942487 0.44471625093567646 -0.8278169704563036
C -8.00564783150323 1.8240307896726935 -1.464121456950843
O -9.09602742282834 2.1313125997391427 -1.0775099034194295
O -6.915268240178123 1.5167489796062443 -1.8507330104822564