146

C -5.3564454929577465 1.0091607042253532 -0.0734429577464788
C -4.079135492957747 0.16955070422535368 -0.19788295774647868
C -4.333545492957747 -1.2789292957746463 0.3017270422535212
C -3.1403854929577464 -2.1745492957746464 0.7330270422535212
C -2.905235492957746 0.902300704225353 0.41966704225352136
C -2.7423854929577463 1.056130704225354 1.8024770422535212
C -1.8861754929577463 1.3499307042253532 -0.4326129577464788
C -1.5304554929577463 1.5279207042253526 2.3254170422535214
H -3.5237954929577464 0.7301007042253529 2.484817042253521
C -0.6776454929577462 1.8010507042253527 0.08546704225352131
H -1.9759254929577463 1.2426607042253535 -1.5115229577464788
C -0.4680254929577463 1.8513207042253539 1.4698070422535212
H -1.3950654929577464 1.5446707042253527 3.404047042253521
H 0.1461845070422536 1.9972507042253538 -0.6030529577464789
C -1.8679654929577463 -2.0866092957746467 -0.08765295774647863
C -0.6628654929577462 -1.814079295774647 0.5787970422535212
C -1.8438954929577462 -2.213429295774647 -1.4808029577464787
C 0.5129345070422537 -1.5763292957746469 -0.13022295774647863
H -0.6401854929577462 -1.7032692957746463 1.6609470422535213
C -0.6547954929577462 -1.9962392957746466 -2.1933129577464787
H -2.7578654929577464 -2.4351492957746466 -2.026182957746479
C 0.5308845070422537 -1.645769295774647 -1.5261029577464789
H 1.4044045070422537 -1.2610992957746463 0.41551704225352126
H -0.6795654929577464 -2.0467992957746466 -3.2793129577464786
C 1.7843245070422535 -1.2521692957746469 -2.2771629577464787
H 1.4981245070422535 -0.9384492957746469 -3.290282957746479
H 2.241984507042254 -0.38631929577464685 -1.8135029577464787
C 0.9385645070422537 2.0647807042253534 1.9815670422535212
H 1.0508945070422537 1.5807407042253532 2.9609770422535213
H 1.6053245070422537 1.5496207042253536 1.3096170422535214
C 3.9676945070422533 -1.6881692957746468 -3.314052957746479
H 4.795084507042254 -2.398849295774647 -3.4044129577464783
H 3.548404507042253 -1.4816192957746468 -4.303802957746479
H 4.307714507042253 -0.7637192957746466 -2.851282957746479
C 2.344694507042253 -3.565079295774647 -3.101282957746479
H 1.6334345070422536 -4.047909295774646 -2.4251929577464786
H 1.8561845070422536 -3.293109295774647 -4.041792957746479
H 3.1808045070422537 -4.243519295774647 -3.298122957746479
C 3.5156645070422536 -2.648489295774647 -1.1110629577464786
H 3.9311845070422535 -1.748249295774647 -0.6771029577464787
H 2.767184507042254 -3.1044092957746465 -0.45972295774647876
H 4.319224507042254 -3.371819295774647 -1.2863129577464787
C 2.963994507042253 3.381090704225353 2.401027042253521
H 3.3337945070422537 4.369820704225353 2.6912870422535216
H 3.120994507042253 2.671350704225353 3.2183370422535216
H 3.4665445070422534 3.0664207042253535 1.4881370422535212
C 1.2973745070422538 4.282440704225354 0.8488370422535213
H 1.7592145070422538 3.7367207042253527 0.02653704225352116
H 0.23311450704225378 4.4484607042253534 0.6605570422535213
H 1.7921845070422535 5.251370704225354 0.9736770422535213
C 0.7724845070422537 4.194670704225353 3.2772470422535216
H -0.2956954929577462 4.278220704225354 3.057857042253521
H 0.9298945070422537 3.612620704225354 4.190337042253521
H 1.2046345070422537 5.193640704225353 3.3918370422535213
N 2.876084507042253 -2.324759295774647 -2.4576629577464786
N 1.4527845070422536 3.504690704225353 2.1388470422535213
C -3.593905492957746 -3.637819295774647 0.8297870422535213
H -2.8952554929577463 -1.8680692957746468 1.7595270422535212
H -5.022615492957747 -1.2402792957746467 1.1579970422535213
H -4.898275492957747 -1.7933092957746464 -0.48931295774647876
H -3.883675492957746 0.07871070422535364 -1.2758929577464788
H -3.8751654929577466 -4.038529295774646 -0.1505529577464788
H -4.4603554929577465 -3.7321892957746465 1.4932570422535212
H -2.7953554929577464 -4.271929295774647 1.2313670422535212
H -5.648775492957746 1.147700704225353 0.9733970422535213
H -6.189795492957747 0.5254307042253537 -0.5943629577464788
H -5.2178854929577465 2.002970704225354 -0.5139729577464787
C 3.6710445070422537 1.0263707042253536 -0.27764295774647874
O 2.7356545070422538 1.6631507042253526 -0.7327029577464788
O 3.650814507042253 0.3883007042253537 0.7790570422535212
O 4.756604507042254 0.8696707042253538 -0.8334829577464786
O -1.0230246265731164 -10.16428232934246 1.4572044607510264
H -0.8332060961751229 -9.538552486937872 0.7420831796092345
H -0.3885344885164099 -10.882580512989845 1.3142641642015676
O 0.3880725907994824 -0.7435827861274344 5.21308974994709
H -0.20724519271015351 -0.6484907629838315 5.9717211496871965
H -0.20753084949270195 -0.7612173284184338 4.448951340278853
O -4.598446314588077 1.874782524704008 10.392142565819128
H -4.302239524600371 1.949449051932591 11.311736935189014
H -3.881919785942837 1.3915241996657355 9.953949606805859
O 4.144244771376725 3.6723498792123417 7.600274850544786
H 3.991925271815374 3.2584687316949905 8.463100744154326
H 3.554561568543825 3.1896298400199594 7.001762504507684
O 1.4107431475173244 -6.178760875398979 0.9049994886883989
H 1.686888807899493 -6.103749014050407 1.8307878834142777
H 0.4854269798248003 -5.891198164165525 0.9127209661949347
O 14.114593841907913 -1.326774735145281 2.0318800959272636
H 14.85147378506124 -1.6839834372897204 1.5138286994513566
H 14.045105068108395 -1.9301704679416631 2.7868945621853314
O -0.3432005920324015 -1.3798504651086154 -9.486966654117268
H 0.5507352264441603 -1.4910121386150847 -9.84402294055945
H -0.9131872243589025 -1.8013816446175963 -10.147563844522178
O 5.71776233316386 -4.957666320047046 -8.19646885391132
H 5.552548417899394 -5.301482899747667 -7.305704082141603
H 5.608161345337686 -5.731038760597745 -8.769918621514536
O -12.34056310409272 -8.371341143339915 -7.104839350123787
H -12.691447109437826 -9.27417444524927 -7.1320386268867875
H -12.960490887480208 -7.86280346794047 -7.648935775754025
O 7.928069005038805 -5.459472441011353 -2.63839038029047
H 8.025776592004505 -5.369911574632809 -1.6784948466187761
H 7.899499229629669 -4.5448303806625105 -2.957099673650256
O 3.957375756408115 10.921595312808533 -7.813549772610199
H 3.9982230757527915 11.882003841840735 -7.691425611345709
H 4.859945110529262 10.623173017865243 -7.625734333462837
O -7.51200161021588 7.2242935199057525 -0.022780495937364975
H -6.633485036942076 7.188351517034928 0.38450829572389544
H -7.34555563810741 7.5842962153071944 -0.9068934649478662
O 8.839021030402225 -0.6643106884874643 -4.018135099029416
H 8.517741382308802 -1.5340980033294782 -3.736680357444048
H 8.081082922335433 -0.07756874537085157 -3.8759181491680423
O 4.74481035100182 6.685920087239279 -0.5998986697031292
H 4.734648889372733 6.901135755825243 0.34484802523295677
H 3.8815203070025674 6.98961089300804 -0.9184330300526647
O 5.626832402644603 1.2540202675167413 7.452790709275414
H 5.3229413093513855 0.44989152707805324 7.005583230449821
H 6.093499455649903 1.7450447192325202 6.759913524085594
O -9.890406825824279 -9.359706648505833 7.973419125477984
H -10.581144180893304 -9.60746925037745 7.340597700172195
H -9.444220134439194 -8.610212796106198 7.551354739458521
O 7.930244096423408 0.0721234086943554 10.581913704248088
H 7.733423241139105 -0.6885449662796745 11.149022627771183
H 8.750266669929797 0.433199669786712 10.950897249837215
O 5.606067757141237 5.532607000493972 3.34980469763387
H 5.519685055042398 5.276187642347815 2.419345403281872
H 4.813836601420602 6.063752118069562 3.5207333502382787
O 3.1329313574957727 1.7833376279154045 11.735410084828299
H 2.459053921274516 2.3192899850970106 11.290874789622901
H 3.154722612219497 2.1359556061581175 12.637711390899383
O -2.7329164404538226 -3.1574690185737575 -4.175885760177255
H -3.667600294807605 -3.212192961411956 -3.9262084897047513
H -2.4970443691091835 -2.2344188894061325 -3.998954221713306
O 4.817000164257289 -5.568843604587596 -4.861249077421695
H 4.419872456507461 -5.7725368542341915 -4.00115257080992
H 5.637139765406891 -5.104389527833209 -4.636270435074467
O 3.820101675390833 -6.371515048803357 5.473222453203627
H 4.161645463967427 -6.640439927575895 4.6072001630967705
H 3.4902850204864997 -7.195992227070862 5.861063014470453
O 6.5303525037047 -1.0381019597628334 3.2320184460367902
H 6.871398071319551 -0.28695279428455334 3.7403787600971503
H 6.787332821545869 -1.8114911479308686 3.7562247262042816
O -6.548698993688325 -0.38939338397414636 5.725429255972897
H -7.421916016622555 -0.566877584862381 5.344694773435596
H -6.237089670601902 0.3908911460961687 5.24271026297742
C -7.719673359820569 -9.53987319936029 1.5584903325334702
O -7.012860559668176 -9.176819749636397 2.453714391350206
O -8.426486159972967 -9.902926649084183 0.663266273716735