146

C -5.3564454929577465 1.0091607042253532 -0.0734429577464788
C -4.079135492957747 0.16955070422535368 -0.19788295774647868
C -4.333545492957747 -1.2789292957746463 0.3017270422535212
C -3.1403854929577464 -2.1745492957746464 0.7330270422535212
C -2.905235492957746 0.902300704225353 0.41966704225352136
C -2.7423854929577463 1.056130704225354 1.8024770422535212
C -1.8861754929577463 1.3499307042253532 -0.4326129577464788
C -1.5304554929577463 1.5279207042253526 2.3254170422535214
H -3.5237954929577464 0.7301007042253529 2.484817042253521
C -0.6776454929577462 1.8010507042253527 0.08546704225352131
H -1.9759254929577463 1.2426607042253535 -1.5115229577464788
C -0.4680254929577463 1.8513207042253539 1.4698070422535212
H -1.3950654929577464 1.5446707042253527 3.404047042253521
H 0.1461845070422536 1.9972507042253538 -0.6030529577464789
C -1.8679654929577463 -2.0866092957746467 -0.08765295774647863
C -0.6628654929577462 -1.814079295774647 0.5787970422535212
C -1.8438954929577462 -2.213429295774647 -1.4808029577464787
C 0.5129345070422537 -1.5763292957746469 -0.13022295774647863
H -0.6401854929577462 -1.7032692957746463 1.6609470422535213
C -0.6547954929577462 -1.9962392957746466 -2.1933129577464787
H -2.7578654929577464 -2.4351492957746466 -2.026182957746479
C 0.5308845070422537 -1.645769295774647 -1.5261029577464789
H 1.4044045070422537 -1.2610992957746463 0.41551704225352126
H -0.6795654929577464 -2.0467992957746466 -3.2793129577464786
C 1.7843245070422535 -1.2521692957746469 -2.2771629577464787
H 1.4981245070422535 -0.9384492957746469 -3.290282957746479
H 2.241984507042254 -0.38631929577464685 -1.8135029577464787
C 0.9385645070422537 2.0647807042253534 1.9815670422535212
H 1.0508945070422537 1.5807407042253532 2.9609770422535213
H 1.6053245070422537 1.5496207042253536 1.3096170422535214
C 3.9676945070422533 -1.6881692957746468 -3.314052957746479
H 4.795084507042254 -2.398849295774647 -3.4044129577464783
H 3.548404507042253 -1.4816192957746468 -4.303802957746479
H 4.307714507042253 -0.7637192957746466 -2.851282957746479
C 2.344694507042253 -3.565079295774647 -3.101282957746479
H 1.6334345070422536 -4.047909295774646 -2.4251929577464786
H 1.8561845070422536 -3.293109295774647 -4.041792957746479
H 3.1808045070422537 -4.243519295774647 -3.298122957746479
C 3.5156645070422536 -2.648489295774647 -1.1110629577464786
H 3.9311845070422535 -1.748249295774647 -0.6771029577464787
H 2.767184507042254 -3.1044092957746465 -0.45972295774647876
H 4.319224507042254 -3.371819295774647 -1.2863129577464787
C 2.963994507042253 3.381090704225353 2.401027042253521
H 3.3337945070422537 4.369820704225353 2.6912870422535216
H 3.120994507042253 2.671350704225353 3.2183370422535216
H 3.4665445070422534 3.0664207042253535 1.4881370422535212
C 1.2973745070422538 4.282440704225354 0.8488370422535213
H 1.7592145070422538 3.7367207042253527 0.02653704225352116
H 0.23311450704225378 4.4484607042253534 0.6605570422535213
H 1.7921845070422535 5.251370704225354 0.9736770422535213
C 0.7724845070422537 4.194670704225353 3.2772470422535216
H -0.2956954929577462 4.278220704225354 3.057857042253521
H 0.9298945070422537 3.612620704225354 4.190337042253521
H 1.2046345070422537 5.193640704225353 3.3918370422535213
N 2.876084507042253 -2.324759295774647 -2.4576629577464786
N 1.4527845070422536 3.504690704225353 2.1388470422535213
C -3.593905492957746 -3.637819295774647 0.8297870422535213
H -2.8952554929577463 -1.8680692957746468 1.7595270422535212
H -5.022615492957747 -1.2402792957746467 1.1579970422535213
H -4.898275492957747 -1.7933092957746464 -0.48931295774647876
H -3.883675492957746 0.07871070422535364 -1.2758929577464788
H -3.8751654929577466 -4.038529295774646 -0.1505529577464788
H -4.4603554929577465 -3.7321892957746465 1.4932570422535212
H -2.7953554929577464 -4.271929295774647 1.2313670422535212
H -5.648775492957746 1.147700704225353 0.9733970422535213
H -6.189795492957747 0.5254307042253537 -0.5943629577464788
H -5.2178854929577465 2.002970704225354 -0.5139729577464787
C 3.6710445070422537 1.0263707042253536 -0.27764295774647874
O 2.7356545070422538 1.6631507042253526 -0.7327029577464788
O 3.650814507042253 0.3883007042253537 0.7790570422535212
O 4.756604507042254 0.8696707042253538 -0.8334829577464786
O 2.585443041212336 3.7157802755183127 -3.9074063440254565
H 3.2639837788691626 3.4166491032718707 -3.2836512911155817
H 2.8094583789835395 4.644524170602951 -4.069313261994603
O -3.5761032798073504 5.996734235160945 8.540127458332384
H -4.367910693250983 5.515609298345197 8.256354358673965
H -3.8582388527768807 6.458277524483613 9.344079729830119
O 7.828764686966321 -3.6493046932892916 0.6224332188003232
H 7.373696317429268 -4.47196379378647 0.3876734685958634
H 8.5140160696455 -3.9309020237372687 1.2470094193722354
O -1.5610571640158613 -7.186540639260003 -6.444945521609283
H -1.4303031807803182 -7.0561910683469975 -7.3961971928986605
H -2.489472487276081 -7.4539466911193095 -6.3707772314534505
O -4.373122804091769 -6.552938083119686 6.668719309326384
H -4.884263877841356 -6.304772712661398 5.883788670013955
H -5.001659024674492 -6.451118646786711 7.399155457186291
O -2.512675880546306 4.964428342070013 -5.179695034783802
H -2.029384096851637 5.3973949326109745 -5.899372976774913
H -2.0769528552355707 5.288334553868476 -4.377079214186906
O 2.8118013328669553 0.3303647505402706 -5.300079923816577
H 3.1247385146339406 0.40750982155410376 -6.213910496289402
H 2.4575526890511568 -0.570125754788891 -5.249220387181861
O 0.658153084317177 1.8689294763228022 11.452965331766157
H -0.07840064575602604 1.8824984906198816 10.823464067695737
H 0.4643570200724361 1.1101668254528965 12.023652872744687
O -4.448121970771997 -0.9051382162824579 -9.48171713568226
H -3.4857577263429285 -0.8692801311975702 -9.589125774434068
H -4.640962076366434 -0.18847336448698182 -8.858687338501342
O 0.21939076160223359 -9.247884583283225 -5.53121711391516
H -0.4913986385576379 -9.529795065619151 -6.126424863755076
H -0.04993213939017016 -9.591106302606573 -4.665985369995786
O -2.7145970128424377 -4.469165420823664 -12.534654787801468
H -2.015762829265636 -5.033341722079296 -12.898389913773736
H -2.330316564703971 -4.11811598114468 -11.717308611215579
O 7.348513641063542 4.420501874786289 -6.096897747730219
H 7.3856154356650725 4.387531332247861 -5.129166505565294
H 8.003730938907834 3.7645884396999323 -6.378730681538247
O 2.6720267185023947 8.527557505570275 1.3546691722491806
H 2.9495195076623055 9.4553445084773 1.3889676576538768
H 1.9896053439559196 8.461892036920679 2.03946918545678
O -10.336437730653596 -0.9234736109639119 9.05930438854391
H -10.42013181689456 -1.0054130514676496 10.021202816091344
H -10.337461972145157 -1.84019899101758 8.745337076877831
O 4.278632067601068 -2.149727912050596 3.8915130768304893
H 4.312996165378184 -1.185255132037014 3.80445721949258
H 3.6662208199285145 -2.4260901432154847 3.193273629928705
O -5.23499636497524 2.758347525482497 12.085390201422234
H -6.096356704824927 3.1756556326465217 12.236650459022208
H -4.712012129125507 3.4507042298631045 11.654006813642992
O 2.3333430007410723 -10.101436948583476 -2.7221089605354702
H 1.4462767624764625 -9.7512722728639 -2.893764271287226
H 2.91927565866701 -9.504790731808228 -3.211657892393797
O -6.864526230381847 6.601532393795183 4.252456570406581
H -7.820740004605578 6.7570794048044505 4.23177560691621
H -6.607480459144219 6.59938421942742 3.3181735291734986
O -4.4783150684768485 -4.074120199520446 -4.319391354361613
H -4.6299297296353075 -4.3592691797524505 -5.232994337333131
H -4.009659747295354 -4.820203781178898 -3.9160510223738902
O 0.1196709981775328 -11.971763009264484 6.390018630298947
H 0.007536986679431035 -12.150944052142432 7.335686370173008
H 0.10797370049242039 -11.004568271517059 6.332057809043931
O -9.3230115909755 -3.095844760360332 -3.492637859310671
H -9.480636166810466 -2.290775159323826 -4.008374989523116
H -8.667242971739785 -3.583020316198594 -4.013780296768381
O -2.17899491666154 -7.707173905445854 -2.5096812658290486
H -2.036757232574252 -8.392002688828942 -3.180311816561362
H -1.3507198510874474 -7.696333444577088 -2.0068842446998607
O -13.105082487158292 2.932248787308499 -1.5741542099103993
H -13.714539711205754 2.6988816218739453 -0.8578658496438072
H -12.25518358484016 2.565957207556142 -1.2869882670464265
O -1.4892154051298494 6.807252988682444 6.634266619751118
H -1.948044937299855 7.419749998241755 7.228648845755192
H -0.6593451111593378 7.2616736667023005 6.425032093744368
C 10.089108144912306 -3.7032332406404453 3.5750784044939614
O 10.496612028439774 -4.583641747671194 2.873908166279361
O 9.681604261384837 -2.8228247336096963 4.276248642708562