146

C -5.3564454929577465 1.0091607042253532 -0.0734429577464788
C -4.079135492957747 0.16955070422535368 -0.19788295774647868
C -4.333545492957747 -1.2789292957746463 0.3017270422535212
C -3.1403854929577464 -2.1745492957746464 0.7330270422535212
C -2.905235492957746 0.902300704225353 0.41966704225352136
C -2.7423854929577463 1.056130704225354 1.8024770422535212
C -1.8861754929577463 1.3499307042253532 -0.4326129577464788
C -1.5304554929577463 1.5279207042253526 2.3254170422535214
H -3.5237954929577464 0.7301007042253529 2.484817042253521
C -0.6776454929577462 1.8010507042253527 0.08546704225352131
H -1.9759254929577463 1.2426607042253535 -1.5115229577464788
C -0.4680254929577463 1.8513207042253539 1.4698070422535212
H -1.3950654929577464 1.5446707042253527 3.404047042253521
H 0.1461845070422536 1.9972507042253538 -0.6030529577464789
C -1.8679654929577463 -2.0866092957746467 -0.08765295774647863
C -0.6628654929577462 -1.814079295774647 0.5787970422535212
C -1.8438954929577462 -2.213429295774647 -1.4808029577464787
C 0.5129345070422537 -1.5763292957746469 -0.13022295774647863
H -0.6401854929577462 -1.7032692957746463 1.6609470422535213
C -0.6547954929577462 -1.9962392957746466 -2.1933129577464787
H -2.7578654929577464 -2.4351492957746466 -2.026182957746479
C 0.5308845070422537 -1.645769295774647 -1.5261029577464789
H 1.4044045070422537 -1.2610992957746463 0.41551704225352126
H -0.6795654929577464 -2.0467992957746466 -3.2793129577464786
C 1.7843245070422535 -1.2521692957746469 -2.2771629577464787
H 1.4981245070422535 -0.9384492957746469 -3.290282957746479
H 2.241984507042254 -0.38631929577464685 -1.8135029577464787
C 0.9385645070422537 2.0647807042253534 1.9815670422535212
H 1.0508945070422537 1.5807407042253532 2.9609770422535213
H 1.6053245070422537 1.5496207042253536 1.3096170422535214
C 3.9676945070422533 -1.6881692957746468 -3.314052957746479
H 4.795084507042254 -2.398849295774647 -3.4044129577464783
H 3.548404507042253 -1.4816192957746468 -4.303802957746479
H 4.307714507042253 -0.7637192957746466 -2.851282957746479
C 2.344694507042253 -3.565079295774647 -3.101282957746479
H 1.6334345070422536 -4.047909295774646 -2.4251929577464786
H 1.8561845070422536 -3.293109295774647 -4.041792957746479
H 3.1808045070422537 -4.243519295774647 -3.298122957746479
C 3.5156645070422536 -2.648489295774647 -1.1110629577464786
H 3.9311845070422535 -1.748249295774647 -0.6771029577464787
H 2.767184507042254 -3.1044092957746465 -0.45972295774647876
H 4.319224507042254 -3.371819295774647 -1.2863129577464787
C 2.963994507042253 3.381090704225353 2.401027042253521
H 3.3337945070422537 4.369820704225353 2.6912870422535216
H 3.120994507042253 2.671350704225353 3.2183370422535216
H 3.4665445070422534 3.0664207042253535 1.4881370422535212
C 1.2973745070422538 4.282440704225354 0.8488370422535213
H 1.7592145070422538 3.7367207042253527 0.02653704225352116
H 0.23311450704225378 4.4484607042253534 0.6605570422535213
H 1.7921845070422535 5.251370704225354 0.9736770422535213
C 0.7724845070422537 4.194670704225353 3.2772470422535216
H -0.2956954929577462 4.278220704225354 3.057857042253521
H 0.9298945070422537 3.612620704225354 4.190337042253521
H 1.2046345070422537 5.193640704225353 3.3918370422535213
N 2.876084507042253 -2.324759295774647 -2.4576629577464786
N 1.4527845070422536 3.504690704225353 2.1388470422535213
C -3.593905492957746 -3.637819295774647 0.8297870422535213
H -2.8952554929577463 -1.8680692957746468 1.7595270422535212
H -5.022615492957747 -1.2402792957746467 1.1579970422535213
H -4.898275492957747 -1.7933092957746464 -0.48931295774647876
H -3.883675492957746 0.07871070422535364 -1.2758929577464788
H -3.8751654929577466 -4.038529295774646 -0.1505529577464788
H -4.4603554929577465 -3.7321892957746465 1.4932570422535212
H -2.7953554929577464 -4.271929295774647 1.2313670422535212
H -5.648775492957746 1.147700704225353 0.9733970422535213
H -6.189795492957747 0.5254307042253537 -0.5943629577464788
H -5.2178854929577465 2.002970704225354 -0.5139729577464787
C 3.6710445070422537 1.0263707042253536 -0.27764295774647874
O 2.7356545070422538 1.6631507042253526 -0.7327029577464788
O 3.650814507042253 0.3883007042253537 0.7790570422535212
O 4.756604507042254 0.8696707042253538 -0.8334829577464786
O -1.1668518966829629 6.654457342277102 5.440591686656274
H -1.977003484335233 6.277155231142947 5.06607215597968
H -1.4317057040471592 7.542178645242287 5.72478403927415
O -6.181208054838759 -3.895031990728683 -0.660759002497237
H -6.257754628265112 -3.7090815295303674 0.28714943452440833
H -6.9570830309987395 -3.4622005441012247 -1.047588298801344
O 2.738464664270191 -2.2784066254625426 -7.406367698128909
H 2.2853369512760024 -2.1991036466785268 -6.553517377045168
H 2.591390926063945 -3.2006881055937844 -7.664685586082814
O -7.8637822213786315 -8.73831916206646 1.6917601863105247
H -8.257431236798578 -7.904366819474328 1.9893022839101775
H -7.850863498820318 -9.288691980377473 2.489184045855656
O -3.4034195562754475 8.178875705414479 -3.6838896471564837
H -2.855714997697697 8.959414197530759 -3.8563620673806955
H -4.3075738853640395 8.48658963797256 -3.8475326402848116
O 2.4605957933469584 -10.850092536687928 -5.831354211869463
H 2.12725606223014 -10.892075231710995 -6.740248833856836
H 1.856043621287291 -11.420922962737158 -5.3337286093786025
O 4.4942983414277355 -12.310119379240847 -2.4734832248356105
H 4.929177602872703 -12.803286197788116 -1.7617010433017903
H 4.21647149247606 -12.996813225945743 -3.0981637409390146
O 0.11825336778208628 10.975011764193685 0.41617391108610846
H 0.11167023678420751 10.886684974522877 -0.5487729255389538
H -0.5859098817298722 10.378026835876069 0.7106650955014798
O -1.7854652547088115 -10.468939394781298 2.0187468694210025
H -1.2247732562007978 -10.476472010607582 2.809022200813742
H -1.1747836162842333 -10.244608101297354 1.3006205911419713
O -2.057027027661232 -2.6293088474261834 8.614074846645904
H -2.064777215259212 -2.7892700553687915 9.569752461454234
H -1.5854151537066299 -3.394675864987995 8.252470763326087
O -13.238609776934057 -1.6189789059597537 -7.065430078846337
H -13.706653764760759 -2.459453983301178 -7.1816360456776716
H -13.168070255860382 -1.5213471745501348 -6.103944683591341
O 2.57458073841915 3.3527105455495256 7.173520247881105
H 1.7274850968221265 3.6563725485902894 6.814096099003211
H 2.359811916312286 3.0761270672340992 8.077034429769673
O 4.91056559459836 9.69762089738777 7.035954188322864
H 4.704861751268178 8.815227401342431 7.379516415402732
H 4.086170161414599 9.98248046871222 6.613829634819267
O -11.20163902379322 -0.7754914576296121 -0.32145217212476407
H -10.919783586071343 -0.1141027162856556 -0.97113655853871
H -12.129398682818413 -0.9430294030509749 -0.5454052838009487
O -2.064363117733125 9.370864174312807 9.604823136998373
H -2.3370473362843605 10.28361325353115 9.782304945190573
H -1.201831754296065 9.29545755982112 10.039927071568389
O 4.865763073311741 2.6318605074177692 10.973953163107753
H 5.200185198113212 2.9061984052282046 10.106849987488944
H 4.6804557873873955 1.6869924577064592 10.865106836949732
O 0.19292099515150984 -8.118136958862271 -4.89038538561822
H -0.03121161433188835 -8.790027705789257 -5.551668044138813
H -0.47695134538779305 -8.236339302284817 -4.200268585583752
O 4.674581091970078 9.262047397633596 -9.035025190667037
H 4.634406979386252 9.26480698718443 -10.003191386236585
H 3.7955802215128895 9.56627088278754 -8.763423487586413
O 4.665638046132643 9.341543559082993 -4.623945268118789
H 5.560051611141815 9.07255223641334 -4.365806933197344
H 4.801599541669363 10.166128582030154 -5.114389919392147
O -3.76175484349874 -1.003329915265689 -4.2668498089457385
H -3.0987532586248547 -0.29883311685642844 -4.322352208766101
H -3.3295039079457975 -1.7647631168325777 -4.6819890055596
O -0.3374399063976705 -3.2888304409733338 -12.915100802859314
H -0.2188928254408653 -3.8970686771981673 -13.66005730795926
H 0.5183871437216077 -2.840554207761257 -12.840465534243695
O -11.568193404958775 -4.839706771273468 7.651864623465578
H -11.961310259287682 -5.637283758012109 8.036958697644149
H -10.690504594149782 -4.791071617531596 8.059613219418035
O -2.612642820551815 -1.8550713881948488 6.9658765460420575
H -2.9715116051445283 -1.2585669802837325 7.639941115417691
H -2.0672661320555736 -1.2786996956746441 6.409709409287046
O 5.514284725479236 6.407134185579499 2.446836276065301
H 5.13227406241521 5.700021504962131 1.9055167150705938
H 4.784010137187879 6.682890093944421 3.020961392218328
C -4.179134184952893 -2.4198445848944266 -3.191824556056315
O -3.719059747113375 -2.5211998784694307 -4.292223062694241
O -4.639208622792412 -2.3184892913194224 -2.09142604941839