146

C -5.3564454929577465 1.0091607042253532 -0.0734429577464788
C -4.079135492957747 0.16955070422535368 -0.19788295774647868
C -4.333545492957747 -1.2789292957746463 0.3017270422535212
C -3.1403854929577464 -2.1745492957746464 0.7330270422535212
C -2.905235492957746 0.902300704225353 0.41966704225352136
C -2.7423854929577463 1.056130704225354 1.8024770422535212
C -1.8861754929577463 1.3499307042253532 -0.4326129577464788
C -1.5304554929577463 1.5279207042253526 2.3254170422535214
H -3.5237954929577464 0.7301007042253529 2.484817042253521
C -0.6776454929577462 1.8010507042253527 0.08546704225352131
H -1.9759254929577463 1.2426607042253535 -1.5115229577464788
C -0.4680254929577463 1.8513207042253539 1.4698070422535212
H -1.3950654929577464 1.5446707042253527 3.404047042253521
H 0.1461845070422536 1.9972507042253538 -0.6030529577464789
C -1.8679654929577463 -2.0866092957746467 -0.08765295774647863
C -0.6628654929577462 -1.814079295774647 0.5787970422535212
C -1.8438954929577462 -2.213429295774647 -1.4808029577464787
C 0.5129345070422537 -1.5763292957746469 -0.13022295774647863
H -0.6401854929577462 -1.7032692957746463 1.6609470422535213
C -0.6547954929577462 -1.9962392957746466 -2.1933129577464787
H -2.7578654929577464 -2.4351492957746466 -2.026182957746479
C 0.5308845070422537 -1.645769295774647 -1.5261029577464789
H 1.4044045070422537 -1.2610992957746463 0.41551704225352126
H -0.6795654929577464 -2.0467992957746466 -3.2793129577464786
C 1.7843245070422535 -1.2521692957746469 -2.2771629577464787
H 1.4981245070422535 -0.9384492957746469 -3.290282957746479
H 2.241984507042254 -0.38631929577464685 -1.8135029577464787
C 0.9385645070422537 2.0647807042253534 1.9815670422535212
H 1.0508945070422537 1.5807407042253532 2.9609770422535213
H 1.6053245070422537 1.5496207042253536 1.3096170422535214
C 3.9676945070422533 -1.6881692957746468 -3.314052957746479
H 4.795084507042254 -2.398849295774647 -3.4044129577464783
H 3.548404507042253 -1.4816192957746468 -4.303802957746479
H 4.307714507042253 -0.7637192957746466 -2.851282957746479
C 2.344694507042253 -3.565079295774647 -3.101282957746479
H 1.6334345070422536 -4.047909295774646 -2.4251929577464786
H 1.8561845070422536 -3.293109295774647 -4.041792957746479
H 3.1808045070422537 -4.243519295774647 -3.298122957746479
C 3.5156645070422536 -2.648489295774647 -1.1110629577464786
H 3.9311845070422535 -1.748249295774647 -0.6771029577464787
H 2.767184507042254 -3.1044092957746465 -0.45972295774647876
H 4.319224507042254 -3.371819295774647 -1.2863129577464787
C 2.963994507042253 3.381090704225353 2.401027042253521
H 3.3337945070422537 4.369820704225353 2.6912870422535216
H 3.120994507042253 2.671350704225353 3.2183370422535216
H 3.4665445070422534 3.0664207042253535 1.4881370422535212
C 1.2973745070422538 4.282440704225354 0.8488370422535213
H 1.7592145070422538 3.7367207042253527 0.02653704225352116
H 0.23311450704225378 4.4484607042253534 0.6605570422535213
H 1.7921845070422535 5.251370704225354 0.9736770422535213
C 0.7724845070422537 4.194670704225353 3.2772470422535216
H -0.2956954929577462 4.278220704225354 3.057857042253521
H 0.9298945070422537 3.612620704225354 4.190337042253521
H 1.2046345070422537 5.193640704225353 3.3918370422535213
N 2.876084507042253 -2.324759295774647 -2.4576629577464786
N 1.4527845070422536 3.504690704225353 2.1388470422535213
C -3.593905492957746 -3.637819295774647 0.8297870422535213
H -2.8952554929577463 -1.8680692957746468 1.7595270422535212
H -5.022615492957747 -1.2402792957746467 1.1579970422535213
H -4.898275492957747 -1.7933092957746464 -0.48931295774647876
H -3.883675492957746 0.07871070422535364 -1.2758929577464788
H -3.8751654929577466 -4.038529295774646 -0.1505529577464788
H -4.4603554929577465 -3.7321892957746465 1.4932570422535212
H -2.7953554929577464 -4.271929295774647 1.2313670422535212
H -5.648775492957746 1.147700704225353 0.9733970422535213
H -6.189795492957747 0.5254307042253537 -0.5943629577464788
H -5.2178854929577465 2.002970704225354 -0.5139729577464787
C 3.6710445070422537 1.0263707042253536 -0.27764295774647874
O 2.7356545070422538 1.6631507042253526 -0.7327029577464788
O 3.650814507042253 0.3883007042253537 0.7790570422535212
O 4.756604507042254 0.8696707042253538 -0.8334829577464786
O 4.988215090433982 0.5228558822731478 -11.914915510540713
H 4.978817112243479 0.42140892620138837 -12.878547987167414
H 4.486925690922627 -0.24185701708142304 -11.594158493784617
O -8.00682815154639 -7.568320326852901 -5.018079217616053
H -7.975670396006178 -7.52309801955985 -5.985525078681566
H -7.344020582478505 -6.921904390225679 -4.732081826787624
O -7.333129213938691 6.331894469142124 -0.2194459987410703
H -7.748057524240613 6.859197749839434 -0.9185547916880967
H -6.392405876317318 6.554762453204675 -0.28525943228163586
O 4.45363523495035 -5.354713194695778 5.716311460372956
H 4.251409510822214 -4.489582248696703 6.103119629464042
H 3.765923766691854 -5.477374222786105 5.044769091706938
O -7.497899701532825 -1.5295912827280347 4.035481939532507
H -7.248656274258902 -2.4460605411235523 4.227651576251523
H -8.465868542227996 -1.5360921611170657 4.079708699796121
O 0.36454676454401325 -2.4672745993098406 4.2195502879906694
H 0.09279354870332734 -2.475688617199338 3.2894713930128283
H 1.317601776353221 -2.2959843238465436 4.18338773419454
O 1.4397636071478068 -9.053942165167394 7.030471342490185
H 1.4666944289651278 -9.10356266228167 6.063114172670073
H 1.5145318912835415 -8.106284638347175 7.218399147373823
O 0.43586431210902976 10.159843982233706 -5.856767446257381
H 0.21444041257278323 9.993927979108776 -6.785428145071114
H 1.3191511783239824 9.77477654053085 -5.754350057047406
O 5.302294226003301 4.474110403383684 7.540292284387932
H 4.764034168844926 3.70914014159136 7.793400890210112
H 5.0559954834915795 4.638629265483385 6.61766970838485
O -4.7752300706639454 10.677681424184112 9.01238182746204
H -5.022242450112049 10.592516844418618 9.94549448714079
H -5.606814158728323 10.53422974113903 8.536092563033716
O -3.9920091130505506 -6.709271748681127 8.034941377937713
H -3.497064537878408 -6.919260868521949 8.841106245664003
H -4.000995028560004 -7.543385306764164 7.541853383919899
O 12.835596095298857 7.270889243904168 -0.023273379214334255
H 13.759221143935054 7.031943413228563 -0.1929466429730322
H 12.876092570088604 8.21028165804394 0.21095700328600975
O -4.433116368725701 -3.255300088949852 8.826342898565063
H -3.5450283057441188 -3.0655226611491058 8.488331837818592
H -4.283491168729902 -3.915210899048814 9.519950832877198
O -6.3244352365757255 -0.5821277781690575 11.416295104007997
H -6.101646651875553 -0.5181979789006337 12.357170007591249
H -5.548680769970301 -1.0069150366585338 11.020412878002928
O -6.818330884090992 7.988686122371077 5.515890116921987
H -7.029448074645753 7.913369818832679 6.458611890921918
H -7.683778709975557 8.072607076590273 5.0881994829181325
O -1.125185930208836 11.358089843230273 1.9026135011002658
H -0.6833135176160183 12.200558553130291 2.086902949329941
H -0.666826802271298 10.723532123421979 2.473757400978429
O 8.596238719056323 8.385380415300437 12.087156209657598
H 9.388969408983623 8.154384502946737 12.594291594563115
H 8.317030478544524 7.545062544421874 11.69362021560823
O 4.9932411538342505 -12.905566355497086 4.98785663198159
H 4.820814276485372 -13.639722848086238 5.596338820099625
H 4.704639957939042 -13.242774989924504 4.126484685087884
O 5.5648564289609315 0.22947792524291666 -4.371975209678914
H 5.76480919387777 -0.6378005871000036 -4.75513866139419
H 4.602399802722533 0.21961531582953953 -4.259984514327214
O -8.237820985657441 -2.1072403212992765 -3.9588168951418927
H -7.269095001385972 -2.103997099712859 -3.9817691458161866
H -8.47770705071412 -1.1750385489775703 -4.070246136240864
O -3.0478401162329223 0.8601248956244598 9.243392446818273
H -2.5789696199220753 0.6565020323739745 10.066596883243935
H -3.9277246242761334 0.47578691081976454 9.373966219995818
O -0.7443926602174503 -1.4218275731508092 -5.20864833550522
H -1.145968957554853 -1.892952605619672 -5.954131425922431
H -0.7539722136507196 -0.49341246174698794 -5.485984877224931
O -7.85319918059133 6.906511416828166 -4.90280164404094
H -8.647722527805554 6.589901584107176 -5.358277462779867
H -7.466319072291477 6.103925199185915 -4.521827774395526
O -5.102076502059804 -11.554089153496946 -5.8916754803171365
H -5.489791333467776 -11.167120526312196 -6.690987589559227
H -4.857638235369921 -10.78558845766755 -5.354443166892693
C -5.912393995664784 0.0024261132652968476 -3.326780926862048
O -6.576963908378893 -0.2520267368358423 -4.289287464757022
O -5.247824082950675 0.25687896336643623 -2.3642743889670736