146

C -5.3564454929577465 1.0091607042253532 -0.0734429577464788
C -4.079135492957747 0.16955070422535368 -0.19788295774647868
C -4.333545492957747 -1.2789292957746463 0.3017270422535212
C -3.1403854929577464 -2.1745492957746464 0.7330270422535212
C -2.905235492957746 0.902300704225353 0.41966704225352136
C -2.7423854929577463 1.056130704225354 1.8024770422535212
C -1.8861754929577463 1.3499307042253532 -0.4326129577464788
C -1.5304554929577463 1.5279207042253526 2.3254170422535214
H -3.5237954929577464 0.7301007042253529 2.484817042253521
C -0.6776454929577462 1.8010507042253527 0.08546704225352131
H -1.9759254929577463 1.2426607042253535 -1.5115229577464788
C -0.4680254929577463 1.8513207042253539 1.4698070422535212
H -1.3950654929577464 1.5446707042253527 3.404047042253521
H 0.1461845070422536 1.9972507042253538 -0.6030529577464789
C -1.8679654929577463 -2.0866092957746467 -0.08765295774647863
C -0.6628654929577462 -1.814079295774647 0.5787970422535212
C -1.8438954929577462 -2.213429295774647 -1.4808029577464787
C 0.5129345070422537 -1.5763292957746469 -0.13022295774647863
H -0.6401854929577462 -1.7032692957746463 1.6609470422535213
C -0.6547954929577462 -1.9962392957746466 -2.1933129577464787
H -2.7578654929577464 -2.4351492957746466 -2.026182957746479
C 0.5308845070422537 -1.645769295774647 -1.5261029577464789
H 1.4044045070422537 -1.2610992957746463 0.41551704225352126
H -0.6795654929577464 -2.0467992957746466 -3.2793129577464786
C 1.7843245070422535 -1.2521692957746469 -2.2771629577464787
H 1.4981245070422535 -0.9384492957746469 -3.290282957746479
H 2.241984507042254 -0.38631929577464685 -1.8135029577464787
C 0.9385645070422537 2.0647807042253534 1.9815670422535212
H 1.0508945070422537 1.5807407042253532 2.9609770422535213
H 1.6053245070422537 1.5496207042253536 1.3096170422535214
C 3.9676945070422533 -1.6881692957746468 -3.314052957746479
H 4.795084507042254 -2.398849295774647 -3.4044129577464783
H 3.548404507042253 -1.4816192957746468 -4.303802957746479
H 4.307714507042253 -0.7637192957746466 -2.851282957746479
C 2.344694507042253 -3.565079295774647 -3.101282957746479
H 1.6334345070422536 -4.047909295774646 -2.4251929577464786
H 1.8561845070422536 -3.293109295774647 -4.041792957746479
H 3.1808045070422537 -4.243519295774647 -3.298122957746479
C 3.5156645070422536 -2.648489295774647 -1.1110629577464786
H 3.9311845070422535 -1.748249295774647 -0.6771029577464787
H 2.767184507042254 -3.1044092957746465 -0.45972295774647876
H 4.319224507042254 -3.371819295774647 -1.2863129577464787
C 2.963994507042253 3.381090704225353 2.401027042253521
H 3.3337945070422537 4.369820704225353 2.6912870422535216
H 3.120994507042253 2.671350704225353 3.2183370422535216
H 3.4665445070422534 3.0664207042253535 1.4881370422535212
C 1.2973745070422538 4.282440704225354 0.8488370422535213
H 1.7592145070422538 3.7367207042253527 0.02653704225352116
H 0.23311450704225378 4.4484607042253534 0.6605570422535213
H 1.7921845070422535 5.251370704225354 0.9736770422535213
C 0.7724845070422537 4.194670704225353 3.2772470422535216
H -0.2956954929577462 4.278220704225354 3.057857042253521
H 0.9298945070422537 3.612620704225354 4.190337042253521
H 1.2046345070422537 5.193640704225353 3.3918370422535213
N 2.876084507042253 -2.324759295774647 -2.4576629577464786
N 1.4527845070422536 3.504690704225353 2.1388470422535213
C -3.593905492957746 -3.637819295774647 0.8297870422535213
H -2.8952554929577463 -1.8680692957746468 1.7595270422535212
H -5.022615492957747 -1.2402792957746467 1.1579970422535213
H -4.898275492957747 -1.7933092957746464 -0.48931295774647876
H -3.883675492957746 0.07871070422535364 -1.2758929577464788
H -3.8751654929577466 -4.038529295774646 -0.1505529577464788
H -4.4603554929577465 -3.7321892957746465 1.4932570422535212
H -2.7953554929577464 -4.271929295774647 1.2313670422535212
H -5.648775492957746 1.147700704225353 0.9733970422535213
H -6.189795492957747 0.5254307042253537 -0.5943629577464788
H -5.2178854929577465 2.002970704225354 -0.5139729577464787
C 3.6710445070422537 1.0263707042253536 -0.27764295774647874
O 2.7356545070422538 1.6631507042253526 -0.7327029577464788
O 3.650814507042253 0.3883007042253537 0.7790570422535212
O 4.756604507042254 0.8696707042253538 -0.8334829577464786
O -3.08650187067736 -5.6224114076742495 -10.630280300997441
H -2.50613667655227 -5.5870707474861145 -11.405454240243087
H -3.8565300458343645 -6.12429379324564 -10.93709070632546
O 3.6639974589088506 -7.35204083765824 6.364871302794663
H 4.261707909452107 -7.1555700212753255 7.101830455340589
H 3.0487102354819324 -6.60349896904251 6.356585898950207
O 5.840692352220752 -3.2806460689463948 1.9488662783643589
H 4.885202033971702 -3.2456929963247583 1.7914372742176103
H 6.216191504969316 -2.753813771683597 1.227471753055279
O 4.889334736555088 4.617858009966431 -0.9239547114229067
H 4.825107707487264 4.596785432323807 0.04268803132573535
H 3.998109242156537 4.3827092934292 -1.2229265220421517
O 1.5872417444368714 -7.328876255401591 5.393031986136177
H 1.8037852990585375 -7.674877474949037 6.271871790607671
H 0.6879396647955245 -6.982157337111079 5.493050512181141
O 7.932765836054168 -6.69881184503358 0.5924309461871289
H 7.1334248440431995 -6.4758476939810885 1.092739173919158
H 8.531751887671081 -7.0660355362243905 1.2597572643378339
O 4.211484206514827 -9.250547655986457 4.368091189599899
H 3.9182781336065764 -10.155594102839808 4.184002936993041
H 3.854324887869405 -8.734122358968806 3.6300504874669013
O 6.723420262220657 -0.4657798012152701 2.319755757401511
H 5.854812962186871 -0.2949893526229759 1.9256500128383762
H 7.269153142488907 -0.7476507421925833 1.570298393486336
O 6.585992925051952 -0.1136502475714618 -5.208150039678707
H 7.122333718158095 0.5595121498858522 -5.653299786617639
H 5.906223531168325 -0.3403210915817947 -5.86045046426444
O 6.318183321505973 -2.0019872129949947 4.0121340505608085
H 6.392048272773659 -1.6895906766211652 4.926420510012034
H 5.386266559134198 -1.8568927548179608 3.7897814240487273
O 2.57105870890033 -1.9983712777490883 -6.538653719556485
H 2.9454265559773867 -2.0381253155016896 -5.645773162898846
H 2.524377528971413 -2.9261353816571773 -6.814401030042124
O 4.6233447394170115 -5.024144797481565 1.1437075860802988
H 5.11338231330125 -5.34784981050329 0.37296405050815085
H 5.316174855198575 -4.757755762918905 1.766592212019067
O 10.302614091961969 -4.381536922011123 4.533188438154928
H 10.449419346996743 -4.084373126200616 5.443742803612405
H 11.051850223100724 -4.969711920284227 4.355263354193554
O 0.3541609191052557 3.8137713566171296 -3.6969742320491186
H 0.5092954436305215 4.2512979640329505 -4.547545277878638
H -0.06227752593021396 4.499502055753618 -3.15354587977237
O 4.7943918772898115 6.206688754450624 -3.4221231127020215
H 4.879182345691145 6.269526967430346 -4.385362071817463
H 5.67346942427469 6.447974708655785 -3.093541769667526
O 4.025775465451469 7.1915007295608175 2.4544195873050008
H 4.462901894117978 8.04838677348508 2.33765422433681
H 3.1060530683511423 7.361477590290596 2.201080835061136
O -12.041779633238573 -1.823058009299836 -1.1692267432056744
H -12.596593211186226 -2.0804826715644253 -0.4176405579395497
H -11.143335500514592 -2.049056778848362 -0.8851763236735024
O 6.444348956726249 -7.984038446379456 -12.47241301769044
H 7.273068080035851 -8.46060165073954 -12.630778051113275
H 5.8769978722327405 -8.24897331584153 -13.211929215056768
O -2.283361438168968 -2.477027340643323 -8.720897128205339
H -2.2697626942156064 -3.260388608174547 -9.291096703437349
H -3.212443710919615 -2.2017790777156065 -8.723440455900695
O -9.231336712696509 0.49246593681310136 -6.358539882420856
H -10.129005878783069 0.8114966934198861 -6.181404901413817
H -8.722798910784036 0.7840432239611266 -5.586961024529177
O 7.013623153268273 -5.687501514507233 -3.3640278356924185
H 6.684362564472112 -5.780450151087965 -4.270623320196609
H 7.408642515078219 -6.550533041509968 -3.168840152949393
O 9.584882852338339 3.321469499869375 -10.913956046061791
H 9.441622918632923 3.6841070615900584 -11.801051276081658
H 9.482670048055123 4.087056501172417 -10.328814156964475
O -7.2579721688804515 10.688228734679699 -6.843503886543417
H -8.157265593905926 11.03690117545331 -6.7504113430669275
H -6.742703903066515 11.19423065040321 -6.197421368726044
O -4.688193583461858 5.097051192859023 6.026181689605425
H -4.331019088262682 5.719817245589334 6.676993628990318
H -3.9162370676915335 4.84021429185267 5.499797905336579
C 1.4096973704407203 11.601555406004232 -5.483776672447442
O 0.6472225199991484 11.552291485207153 -6.405201344274608
O 2.1721722208822927 11.650819326801312 -4.562352000620275