146

C -5.3564454929577465 1.0091607042253532 -0.0734429577464788
C -4.079135492957747 0.16955070422535368 -0.19788295774647868
C -4.333545492957747 -1.2789292957746463 0.3017270422535212
C -3.1403854929577464 -2.1745492957746464 0.7330270422535212
C -2.905235492957746 0.902300704225353 0.41966704225352136
C -2.7423854929577463 1.056130704225354 1.8024770422535212
C -1.8861754929577463 1.3499307042253532 -0.4326129577464788
C -1.5304554929577463 1.5279207042253526 2.3254170422535214
H -3.5237954929577464 0.7301007042253529 2.484817042253521
C -0.6776454929577462 1.8010507042253527 0.08546704225352131
H -1.9759254929577463 1.2426607042253535 -1.5115229577464788
C -0.4680254929577463 1.8513207042253539 1.4698070422535212
H -1.3950654929577464 1.5446707042253527 3.404047042253521
H 0.1461845070422536 1.9972507042253538 -0.6030529577464789
C -1.8679654929577463 -2.0866092957746467 -0.08765295774647863
C -0.6628654929577462 -1.814079295774647 0.5787970422535212
C -1.8438954929577462 -2.213429295774647 -1.4808029577464787
C 0.5129345070422537 -1.5763292957746469 -0.13022295774647863
H -0.6401854929577462 -1.7032692957746463 1.6609470422535213
C -0.6547954929577462 -1.9962392957746466 -2.1933129577464787
H -2.7578654929577464 -2.4351492957746466 -2.026182957746479
C 0.5308845070422537 -1.645769295774647 -1.5261029577464789
H 1.4044045070422537 -1.2610992957746463 0.41551704225352126
H -0.6795654929577464 -2.0467992957746466 -3.2793129577464786
C 1.7843245070422535 -1.2521692957746469 -2.2771629577464787
H 1.4981245070422535 -0.9384492957746469 -3.290282957746479
H 2.241984507042254 -0.38631929577464685 -1.8135029577464787
C 0.9385645070422537 2.0647807042253534 1.9815670422535212
H 1.0508945070422537 1.5807407042253532 2.9609770422535213
H 1.6053245070422537 1.5496207042253536 1.3096170422535214
C 3.9676945070422533 -1.6881692957746468 -3.314052957746479
H 4.795084507042254 -2.398849295774647 -3.4044129577464783
H 3.548404507042253 -1.4816192957746468 -4.303802957746479
H 4.307714507042253 -0.7637192957746466 -2.851282957746479
C 2.344694507042253 -3.565079295774647 -3.101282957746479
H 1.6334345070422536 -4.047909295774646 -2.4251929577464786
H 1.8561845070422536 -3.293109295774647 -4.041792957746479
H 3.1808045070422537 -4.243519295774647 -3.298122957746479
C 3.5156645070422536 -2.648489295774647 -1.1110629577464786
H 3.9311845070422535 -1.748249295774647 -0.6771029577464787
H 2.767184507042254 -3.1044092957746465 -0.45972295774647876
H 4.319224507042254 -3.371819295774647 -1.2863129577464787
C 2.963994507042253 3.381090704225353 2.401027042253521
H 3.3337945070422537 4.369820704225353 2.6912870422535216
H 3.120994507042253 2.671350704225353 3.2183370422535216
H 3.4665445070422534 3.0664207042253535 1.4881370422535212
C 1.2973745070422538 4.282440704225354 0.8488370422535213
H 1.7592145070422538 3.7367207042253527 0.02653704225352116
H 0.23311450704225378 4.4484607042253534 0.6605570422535213
H 1.7921845070422535 5.251370704225354 0.9736770422535213
C 0.7724845070422537 4.194670704225353 3.2772470422535216
H -0.2956954929577462 4.278220704225354 3.057857042253521
H 0.9298945070422537 3.612620704225354 4.190337042253521
H 1.2046345070422537 5.193640704225353 3.3918370422535213
N 2.876084507042253 -2.324759295774647 -2.4576629577464786
N 1.4527845070422536 3.504690704225353 2.1388470422535213
C -3.593905492957746 -3.637819295774647 0.8297870422535213
H -2.8952554929577463 -1.8680692957746468 1.7595270422535212
H -5.022615492957747 -1.2402792957746467 1.1579970422535213
H -4.898275492957747 -1.7933092957746464 -0.48931295774647876
H -3.883675492957746 0.07871070422535364 -1.2758929577464788
H -3.8751654929577466 -4.038529295774646 -0.1505529577464788
H -4.4603554929577465 -3.7321892957746465 1.4932570422535212
H -2.7953554929577464 -4.271929295774647 1.2313670422535212
H -5.648775492957746 1.147700704225353 0.9733970422535213
H -6.189795492957747 0.5254307042253537 -0.5943629577464788
H -5.2178854929577465 2.002970704225354 -0.5139729577464787
C 3.6710445070422537 1.0263707042253536 -0.27764295774647874
O 2.7356545070422538 1.6631507042253526 -0.7327029577464788
O 3.650814507042253 0.3883007042253537 0.7790570422535212
O 4.756604507042254 0.8696707042253538 -0.8334829577464786
O 2.9607711346169223 -5.8711804127675435 -10.838506301782887
H 2.5654025932171693 -5.967195189253483 -11.717956264013704
H 3.1624737867186017 -6.780712675906498 -10.571993550222137
O -6.506455599178196 -5.7305481186652285 -7.708463631365659
H -6.610380841150987 -5.787288833031856 -6.746721778104576
H -7.2342845514681775 -6.268474926701782 -8.054674130490213
O 7.318764812123372 6.5150822402772945 11.870030457814345
H 7.23621355228064 6.3541904143418595 12.82201074476652
H 6.679941543976378 7.222590686024009 11.695965597572362
O 0.9894542970716242 6.54475347479617 -3.461950032960846
H 0.27544228866669795 6.481704484355286 -4.114007571494027
H 0.8860056940576595 7.432113456302214 -3.0866466969031285
O 2.929220242654497 -5.600501309661606 -7.856178664417443
H 3.2662156728867333 -6.4995281785979895 -7.987144789171269
H 2.9698114482419835 -5.204323312354351 -8.739557005095186
O 5.6159353596882795 10.762021241562632 -7.239942337005441
H 5.822242867843421 10.48899333720519 -6.333377208390291
H 4.882754648363175 10.18320734313251 -7.497590274751779
O -6.132434867056911 2.6972788942498314 1.447185670555358
H -6.988686325848418 2.2437396891456327 1.437037485945849
H -6.32505344093006 3.569412605806373 1.071362815388614
O -1.9192863445141088 -6.290984907051433 1.0135057298851384
H -1.7588535249426074 -6.341133306939701 1.9678189935952186
H -1.168170586201637 -6.763884518444538 0.6247217031312995
O 11.555858244050274 -3.7395071535020037 -6.265246303867853
H 11.699147226294235 -3.3905898306923943 -7.157822533839761
H 11.374974178611243 -4.680694834726662 -6.408105142870562
O -12.650874650411112 -4.153744477889469 -1.9274763323177702
H -12.339075519765974 -3.237915989395694 -1.8726416836716435
H -12.811918658084432 -4.401813727439441 -1.0047150309400896
O 7.053108755019824 5.1027782266914095 -0.08510311801252979
H 7.4024909442818645 5.960810906381358 0.19893801159822422
H 7.550951218939964 4.460859783400946 0.443153957265664
O -0.9203591864267398 8.150434553444969 5.299395707792348
H -1.0056065319655798 8.64254566390535 4.4690181418983554
H -0.06895205581276548 7.695434779189189 5.215472840426718
O 1.7360302186913315 -1.5850982575888348 5.933973898040495
H 1.7704097293195646 -1.5604304024721287 6.902052873678797
H 2.476337620557635 -1.0235404552713412 5.659092596933437
O -5.623239628804458 -5.945472287727726 5.98619688227899
H -5.0129363346139115 -6.683712336858702 5.8395719326310465
H -6.412792254999938 -6.190583106468313 5.480737406846846
O 4.287218227807032 -5.351023881942016 9.514738631740794
H 3.8222007165388967 -5.767170194386907 10.256053893793661
H 3.589238972067325 -4.87967235877106 9.035557408755729
O -2.837487986622791 -0.6595953825526717 9.003939868085798
H -3.1837602080118828 -1.5536017603534507 9.144707414224092
H -3.6084988144632346 -0.15428829303653568 8.705328091798384
O -3.1012483788846668 4.931615778862116 7.754548221462253
H -2.318703056363753 4.442861173803608 8.05070546201994
H -3.349902889733486 5.464301625268441 8.524858981852441
O 6.681213759404944 -4.316118534443765 -2.75433292283636
H 5.73126925337693 -4.5034481294848545 -2.715856758930177
H 6.980598219135059 -4.7863668828706505 -3.5469219590801706
O 0.582173139530258 -4.3256471174945545 8.992734924237189
H 0.47352960222227214 -5.063699305403999 9.611154609097959
H 1.511624313653555 -4.380171101782487 8.724202627560993
O -0.17269602463262623 6.94284511747356 -0.2295052385062415
H -0.6074858108151939 7.13075653029724 -1.0748539829081758
H -0.3607949268488623 6.005269293514229 -0.07287726650881088
O 3.7341462027782297 10.088396120691527 8.042981055931442
H 4.13423302147329 10.278636517301198 7.181176852005595
H 3.617737849556395 9.126418650594442 8.039758227082102
O 2.3500869482666054 -8.370717867068288 -8.580241508831927
H 2.421862937290311 -8.637656629796563 -9.508982194520225
H 2.5754350782571156 -7.4283300631972065 -8.589482273130404
O -2.9067384221411743 1.1371786273207716 -3.471448379679556
H -2.0810889843943174 1.519524012118823 -3.1381581614433607
H -2.9042553952693253 0.23357889461550108 -3.121500809417213
O -8.061066197193508 -0.9490886726620538 -6.895425606943911
H -8.03122013480983 -0.8941603508139182 -7.862410327050251
H -7.292239800394277 -0.43411767059182704 -6.607896855491994
C -1.2032144290661977 -11.275987420558703 -1.2652533701603583
O -1.9662382232619775 -10.56326628634175 -1.8506092718403342
O -0.44019063487041665 -11.988708554775656 -0.6798974684803828