146

C -5.3564454929577465 1.0091607042253532 -0.0734429577464788
C -4.079135492957747 0.16955070422535368 -0.19788295774647868
C -4.333545492957747 -1.2789292957746463 0.3017270422535212
C -3.1403854929577464 -2.1745492957746464 0.7330270422535212
C -2.905235492957746 0.902300704225353 0.41966704225352136
C -2.7423854929577463 1.056130704225354 1.8024770422535212
C -1.8861754929577463 1.3499307042253532 -0.4326129577464788
C -1.5304554929577463 1.5279207042253526 2.3254170422535214
H -3.5237954929577464 0.7301007042253529 2.484817042253521
C -0.6776454929577462 1.8010507042253527 0.08546704225352131
H -1.9759254929577463 1.2426607042253535 -1.5115229577464788
C -0.4680254929577463 1.8513207042253539 1.4698070422535212
H -1.3950654929577464 1.5446707042253527 3.404047042253521
H 0.1461845070422536 1.9972507042253538 -0.6030529577464789
C -1.8679654929577463 -2.0866092957746467 -0.08765295774647863
C -0.6628654929577462 -1.814079295774647 0.5787970422535212
C -1.8438954929577462 -2.213429295774647 -1.4808029577464787
C 0.5129345070422537 -1.5763292957746469 -0.13022295774647863
H -0.6401854929577462 -1.7032692957746463 1.6609470422535213
C -0.6547954929577462 -1.9962392957746466 -2.1933129577464787
H -2.7578654929577464 -2.4351492957746466 -2.026182957746479
C 0.5308845070422537 -1.645769295774647 -1.5261029577464789
H 1.4044045070422537 -1.2610992957746463 0.41551704225352126
H -0.6795654929577464 -2.0467992957746466 -3.2793129577464786
C 1.7843245070422535 -1.2521692957746469 -2.2771629577464787
H 1.4981245070422535 -0.9384492957746469 -3.290282957746479
H 2.241984507042254 -0.38631929577464685 -1.8135029577464787
C 0.9385645070422537 2.0647807042253534 1.9815670422535212
H 1.0508945070422537 1.5807407042253532 2.9609770422535213
H 1.6053245070422537 1.5496207042253536 1.3096170422535214
C 3.9676945070422533 -1.6881692957746468 -3.314052957746479
H 4.795084507042254 -2.398849295774647 -3.4044129577464783
H 3.548404507042253 -1.4816192957746468 -4.303802957746479
H 4.307714507042253 -0.7637192957746466 -2.851282957746479
C 2.344694507042253 -3.565079295774647 -3.101282957746479
H 1.6334345070422536 -4.047909295774646 -2.4251929577464786
H 1.8561845070422536 -3.293109295774647 -4.041792957746479
H 3.1808045070422537 -4.243519295774647 -3.298122957746479
C 3.5156645070422536 -2.648489295774647 -1.1110629577464786
H 3.9311845070422535 -1.748249295774647 -0.6771029577464787
H 2.767184507042254 -3.1044092957746465 -0.45972295774647876
H 4.319224507042254 -3.371819295774647 -1.2863129577464787
C 2.963994507042253 3.381090704225353 2.401027042253521
H 3.3337945070422537 4.369820704225353 2.6912870422535216
H 3.120994507042253 2.671350704225353 3.2183370422535216
H 3.4665445070422534 3.0664207042253535 1.4881370422535212
C 1.2973745070422538 4.282440704225354 0.8488370422535213
H 1.7592145070422538 3.7367207042253527 0.02653704225352116
H 0.23311450704225378 4.4484607042253534 0.6605570422535213
H 1.7921845070422535 5.251370704225354 0.9736770422535213
C 0.7724845070422537 4.194670704225353 3.2772470422535216
H -0.2956954929577462 4.278220704225354 3.057857042253521
H 0.9298945070422537 3.612620704225354 4.190337042253521
H 1.2046345070422537 5.193640704225353 3.3918370422535213
N 2.876084507042253 -2.324759295774647 -2.4576629577464786
N 1.4527845070422536 3.504690704225353 2.1388470422535213
C -3.593905492957746 -3.637819295774647 0.8297870422535213
H -2.8952554929577463 -1.8680692957746468 1.7595270422535212
H -5.022615492957747 -1.2402792957746467 1.1579970422535213
H -4.898275492957747 -1.7933092957746464 -0.48931295774647876
H -3.883675492957746 0.07871070422535364 -1.2758929577464788
H -3.8751654929577466 -4.038529295774646 -0.1505529577464788
H -4.4603554929577465 -3.7321892957746465 1.4932570422535212
H -2.7953554929577464 -4.271929295774647 1.2313670422535212
H -5.648775492957746 1.147700704225353 0.9733970422535213
H -6.189795492957747 0.5254307042253537 -0.5943629577464788
H -5.2178854929577465 2.002970704225354 -0.5139729577464787
C 3.6710445070422537 1.0263707042253536 -0.27764295774647874
O 2.7356545070422538 1.6631507042253526 -0.7327029577464788
O 3.650814507042253 0.3883007042253537 0.7790570422535212
O 4.756604507042254 0.8696707042253538 -0.8334829577464786
O -9.55878226662048 -1.7135277311801556 3.010306168486738
H -9.416413737696958 -2.522804033898712 3.5238920179124573
H -8.879226094684666 -1.1055834587994866 3.3382834774022836
O -2.079932443873675 3.929776783795683 4.77493016227932
H -2.8925030733487067 3.4112595682167677 4.675752411937615
H -1.9482433525779268 3.9774163239951466 5.733757780646294
O 6.7858493707944145 -2.675597153798801 5.675347987063509
H 7.076571719292517 -2.1902348855603577 6.462031749165018
H 7.334219140595547 -3.4745018715353297 5.677295253498696
O 4.212252091592993 -7.478899703771667 -0.13952317419288318
H 4.045517514065519 -7.705621166298339 0.7877115943455396
H 4.987719184270792 -6.899011131648893 -0.10289017820222046
O -6.179991194160967 -4.618404532901959 -6.765702752098331
H -6.5529848636027435 -4.807294153642038 -5.89153812765221
H -5.999823885520805 -5.4948456798683605 -7.137660546883678
O -2.734418095868404 -6.932775440786937 2.4397354168953562
H -2.725594442188653 -7.031575444937998 1.4758225270471645
H -3.4485035509965893 -7.520583943046262 2.7287424613527897
O 7.7591666560348695 7.563052943162791 -4.812387169982447
H 7.932256535797617 6.792902775729022 -4.250358727619023
H 7.040148955088623 7.272102757542969 -5.393182727398103
O -7.807097313592191 1.9344111313658399 12.483919286777505
H -7.579987749767211 2.0691242075991 13.416250231244652
H -6.967190818660826 1.6805371963100821 12.072741649774455
O -5.483932769087024 -0.46550644806337216 -12.274482633671804
H -5.57987891263425 -0.1825110696361707 -13.196260974829407
H -6.348617047608334 -0.2760795498251909 -11.880273941476997
O -9.809748060227975 2.950352413260325 3.889072422020776
H -10.049345065594936 3.0977142656610956 4.816350760156742
H -9.160697903154238 2.231809389187565 3.926378727907721
O 7.843516827384562 0.9088875239311172 -9.001668417779793
H 7.403042469698993 1.6053405334384285 -8.49186168707717
H 8.193602097946773 1.3723930678472565 -9.777274541011415
O 7.6565391920417385 -0.26727686535490536 3.0736194407645594
H 8.25903143379562 -0.7570187249160345 3.6533809145794325
H 6.775430695134049 -0.49084211037794867 3.4092209041029333
O 1.3024405002585264 -11.233416088969921 0.22975705027507587
H 0.6513610308052122 -11.880651395436495 -0.08032251922202915
H 0.7655701038285674 -10.476246061587196 0.5080117382326708
O -9.520791417853324 -1.153220331607562 -8.657274129231515
H -9.501729447864603 -1.1771630906223822 -9.625794001248043
H -8.645774300105897 -0.815229152590101 -8.414233081555675
O -0.9309156751882068 -6.160180282509515 0.7055521765462125
H -1.5296686777196546 -5.398906035989805 0.6751594069220725
H -0.07266146750430691 -5.793479129275694 0.44499138995339793
O 1.8790235961453927 -12.560527899208605 -4.45487387600743
H 2.0574198537114015 -12.753324672108189 -3.522151228836285
H 1.7714765494877547 -13.435002098499448 -4.858222920669568
O 8.17264266116793 -1.2167812855463396 -0.8247003389633367
H 8.925978368917322 -1.8262461950741682 -0.8269790192751001
H 8.551488825054424 -0.37749789983892246 -0.5229704483592017
O 5.957171070926481 -7.3654734353043985 10.959936408537661
H 6.017050183569134 -7.3379990404436395 11.926697499188379
H 6.847541230543641 -7.124169181043671 10.663330306039775
O -5.796749391409193 -3.1901260918758836 -3.849027906883741
H -5.493246257089388 -3.950577787768747 -3.3307939610911843
H -4.987292264134597 -2.6859405803879333 -4.0208943474996826
O -0.030450589250160753 -9.793552370525633 7.671617653237514
H 0.6747521772825373 -9.244471516148971 8.046005994845029
H -0.09582682794991504 -9.495542407939892 6.75190141769901
O 7.418807053061743 6.628244017580097 1.4279418600245748
H 6.820645378762525 6.05363301217504 1.9289330383570364
H 7.857640958132695 7.159876258258162 2.1089366534935094
O 0.229726940622053 -6.5932570679085964 11.443524300950356
H -0.02769501101789862 -6.972906754438 10.589962697296581
H 0.03894641700630119 -7.2982555707711665 12.080345976987246
O 1.342484157494792 15.825147171486158 -0.6582941151779096
H 0.8356510876051493 16.440565912638387 -0.10752431825286912
H 0.8111559952604943 15.740258566766897 -1.4641763975898892
O 6.700590623456277 -1.9776892944615283 -6.953934863352906
H 5.7722102617290565 -1.7150258735148693 -7.04385253767689
H 7.0654049276231845 -1.3366103437884425 -6.325531929894516
C -2.842298472806451 5.409564962249713 -3.938332790058949
O -3.519273456034471 5.3514036563248295 -2.9528682336813317
O -2.1653234895784315 5.467726268174598 -4.923797346436566