146

C -5.3564454929577465 1.0091607042253532 -0.0734429577464788
C -4.079135492957747 0.16955070422535368 -0.19788295774647868
C -4.333545492957747 -1.2789292957746463 0.3017270422535212
C -3.1403854929577464 -2.1745492957746464 0.7330270422535212
C -2.905235492957746 0.902300704225353 0.41966704225352136
C -2.7423854929577463 1.056130704225354 1.8024770422535212
C -1.8861754929577463 1.3499307042253532 -0.4326129577464788
C -1.5304554929577463 1.5279207042253526 2.3254170422535214
H -3.5237954929577464 0.7301007042253529 2.484817042253521
C -0.6776454929577462 1.8010507042253527 0.08546704225352131
H -1.9759254929577463 1.2426607042253535 -1.5115229577464788
C -0.4680254929577463 1.8513207042253539 1.4698070422535212
H -1.3950654929577464 1.5446707042253527 3.404047042253521
H 0.1461845070422536 1.9972507042253538 -0.6030529577464789
C -1.8679654929577463 -2.0866092957746467 -0.08765295774647863
C -0.6628654929577462 -1.814079295774647 0.5787970422535212
C -1.8438954929577462 -2.213429295774647 -1.4808029577464787
C 0.5129345070422537 -1.5763292957746469 -0.13022295774647863
H -0.6401854929577462 -1.7032692957746463 1.6609470422535213
C -0.6547954929577462 -1.9962392957746466 -2.1933129577464787
H -2.7578654929577464 -2.4351492957746466 -2.026182957746479
C 0.5308845070422537 -1.645769295774647 -1.5261029577464789
H 1.4044045070422537 -1.2610992957746463 0.41551704225352126
H -0.6795654929577464 -2.0467992957746466 -3.2793129577464786
C 1.7843245070422535 -1.2521692957746469 -2.2771629577464787
H 1.4981245070422535 -0.9384492957746469 -3.290282957746479
H 2.241984507042254 -0.38631929577464685 -1.8135029577464787
C 0.9385645070422537 2.0647807042253534 1.9815670422535212
H 1.0508945070422537 1.5807407042253532 2.9609770422535213
H 1.6053245070422537 1.5496207042253536 1.3096170422535214
C 3.9676945070422533 -1.6881692957746468 -3.314052957746479
H 4.795084507042254 -2.398849295774647 -3.4044129577464783
H 3.548404507042253 -1.4816192957746468 -4.303802957746479
H 4.307714507042253 -0.7637192957746466 -2.851282957746479
C 2.344694507042253 -3.565079295774647 -3.101282957746479
H 1.6334345070422536 -4.047909295774646 -2.4251929577464786
H 1.8561845070422536 -3.293109295774647 -4.041792957746479
H 3.1808045070422537 -4.243519295774647 -3.298122957746479
C 3.5156645070422536 -2.648489295774647 -1.1110629577464786
H 3.9311845070422535 -1.748249295774647 -0.6771029577464787
H 2.767184507042254 -3.1044092957746465 -0.45972295774647876
H 4.319224507042254 -3.371819295774647 -1.2863129577464787
C 2.963994507042253 3.381090704225353 2.401027042253521
H 3.3337945070422537 4.369820704225353 2.6912870422535216
H 3.120994507042253 2.671350704225353 3.2183370422535216
H 3.4665445070422534 3.0664207042253535 1.4881370422535212
C 1.2973745070422538 4.282440704225354 0.8488370422535213
H 1.7592145070422538 3.7367207042253527 0.02653704225352116
H 0.23311450704225378 4.4484607042253534 0.6605570422535213
H 1.7921845070422535 5.251370704225354 0.9736770422535213
C 0.7724845070422537 4.194670704225353 3.2772470422535216
H -0.2956954929577462 4.278220704225354 3.057857042253521
H 0.9298945070422537 3.612620704225354 4.190337042253521
H 1.2046345070422537 5.193640704225353 3.3918370422535213
N 2.876084507042253 -2.324759295774647 -2.4576629577464786
N 1.4527845070422536 3.504690704225353 2.1388470422535213
C -3.593905492957746 -3.637819295774647 0.8297870422535213
H -2.8952554929577463 -1.8680692957746468 1.7595270422535212
H -5.022615492957747 -1.2402792957746467 1.1579970422535213
H -4.898275492957747 -1.7933092957746464 -0.48931295774647876
H -3.883675492957746 0.07871070422535364 -1.2758929577464788
H -3.8751654929577466 -4.038529295774646 -0.1505529577464788
H -4.4603554929577465 -3.7321892957746465 1.4932570422535212
H -2.7953554929577464 -4.271929295774647 1.2313670422535212
H -5.648775492957746 1.147700704225353 0.9733970422535213
H -6.189795492957747 0.5254307042253537 -0.5943629577464788
H -5.2178854929577465 2.002970704225354 -0.5139729577464787
C 3.6710445070422537 1.0263707042253536 -0.27764295774647874
O 2.7356545070422538 1.6631507042253526 -0.7327029577464788
O 3.650814507042253 0.3883007042253537 0.7790570422535212
O 4.756604507042254 0.8696707042253538 -0.8334829577464786
O -0.4189653384338936 -2.744728086779536 6.07567471978172
H -1.1043962851319549 -3.02399327641831 6.701104754289673
H -0.034765309840500525 -1.9556580931594292 6.486431128736223
O -9.914039620889675 4.636601348735868 -1.9119590780302782
H -9.895647614436143 4.692946897643728 -2.879147927282008
H -9.6182405975396 5.512219145600715 -1.6208261944552773
O 5.352765060470659 5.705279028663548 -8.954695251706372
H 5.677192815523567 5.70341996554927 -8.041617745392877
H 5.670776290615885 6.546983080448173 -9.314368841243976
O -1.426721641940078 1.7611722393329607 6.387942505293469
H -1.9062399805262935 2.289411564798944 7.043680818106407
H -1.8143440931487913 0.8769615836064194 6.4709021094305905
O -2.1107368813041942 1.9950318446226643 -11.811861642873968
H -2.1134505640905847 2.0755588074349816 -12.777509301746477
H -1.6562284267770422 2.796363701152995 -11.51144316013199
O 6.12107656313642 3.0876285423306498 -2.0098846386847224
H 6.160811340391952 3.7739539862051905 -2.692779864518723
H 5.949653905278516 2.2732399278836075 -2.5062186001783493
O 0.5508583876976358 10.709100591559324 -0.43490136238360355
H 0.2870473433107442 11.625591283222827 -0.2633907159104121
H 0.9604759867594381 10.424096694699486 0.39572981064901924
O 2.27048040411053 -1.0434131822487736 3.2979327753125522
H 3.1259060343009675 -0.5966858017871688 3.385391312112603
H 1.6444209208134442 -0.32113368871885206 3.1387982382065367
O 5.608254931477141 -6.548952140559951 8.635887119920332
H 4.806740441107298 -6.843526900318185 8.177883201224704
H 5.429023821187324 -6.741398470682749 9.568519182111283
O 1.5780274309979427 -5.831608401467436 -4.5277056374045435
H 1.7644657224191818 -4.958984524262917 -4.905509408328658
H 2.246817058155237 -5.934079520941042 -3.834032768841391
O -11.252982267287756 -0.7586200142609147 7.2728029291848575
H -11.186667311207437 -0.6076668980060846 6.317929722841198
H -11.338123412949523 -1.7205905724772643 7.352336411067186
O 10.25833147216555 2.2787527573113047 6.870906793537983
H 10.20029994317462 2.4016671974183814 7.8303294006075355
H 9.485867256113563 1.7340035523038873 6.657577745204254
O -9.40236727486317 -2.4389499527790006 3.832174813771984
H -9.715897920831164 -1.593649720033029 3.4770221600320745
H -8.712155871213133 -2.7128175257666 3.209626249371322
O 2.079688221332051 5.623128405599171 -3.4006304442403956
H 1.9139856362537757 5.153696438407785 -2.5692799535463657
H 3.0347503891682583 5.786594490254433 -3.3907796049116325
O -4.813654226417973 -3.6062841277715676 -8.274169382240325
H -4.4223350518204025 -4.448751285685464 -8.550005834379556
H -4.7018599872373334 -3.600284482830446 -7.3116580853473465
O 7.57367866848336 -9.407346448154962 -5.38592269773734
H 7.659295278682618 -9.898184606227552 -6.217015385431015
H 7.179777071486057 -10.04821497844911 -4.775110940268973
O 12.65934091600513 -2.901347076303577 -3.656167701258053
H 12.055451412229829 -3.6267413986180905 -3.436878163696666
H 12.383136859707271 -2.1813636672284966 -3.0693993021078976
O 7.538307708220726 -8.6212213844898 7.9428244032581095
H 7.118682141893291 -9.462277942736783 7.70722812397059
H 6.964349705286255 -7.952382514308197 7.540097795120942
O 4.332741537120093 -1.8495865249648924 -7.18053542368939
H 3.806196004810729 -2.5722360330721084 -6.807045333141529
H 5.053850394109509 -2.3009416367025906 -7.644477794873211
O -0.1851777195507544 -9.99180336508701 9.198400848347012
H 0.4465281375989821 -10.515208676569165 9.714115834414885
H -0.7409240666185757 -9.567932191830387 9.869549990120154
O -13.303974747145762 -7.228016438117129 0.7445049979155689
H -12.840612471142382 -7.398864167263719 -0.08920587014507064
H -12.819118260581462 -6.484785368095973 1.1337140783488673
O -3.337176034015135 -7.492268461621565 7.58841919703189
H -3.19447004082482 -7.8132105790433535 8.491524126523686
H -3.027009101722322 -8.220509670337483 7.029470934363471
O 1.7014170981998058 -10.89629062939062 -6.107622326710063
H 1.0799334772045124 -11.10533121108137 -6.821083959133962
H 2.223618389654926 -10.16015874784948 -6.460294424389056
O 5.969259961291039 2.429969850297107 2.8774030804047404
H 5.687095858715142 2.5379603237426895 3.798103267090145
H 6.921687031337643 2.60668561388743 2.9022256395220065
C 1.2890184356457435 -7.518840297091707 0.6144607723255926
O 0.27094304681972226 -6.91896792295446 0.8054945251382528
O 2.3070938244717647 -8.118712671228954 0.4234270195129324