146

C -5.3564454929577465 1.0091607042253532 -0.0734429577464788
C -4.079135492957747 0.16955070422535368 -0.19788295774647868
C -4.333545492957747 -1.2789292957746463 0.3017270422535212
C -3.1403854929577464 -2.1745492957746464 0.7330270422535212
C -2.905235492957746 0.902300704225353 0.41966704225352136
C -2.7423854929577463 1.056130704225354 1.8024770422535212
C -1.8861754929577463 1.3499307042253532 -0.4326129577464788
C -1.5304554929577463 1.5279207042253526 2.3254170422535214
H -3.5237954929577464 0.7301007042253529 2.484817042253521
C -0.6776454929577462 1.8010507042253527 0.08546704225352131
H -1.9759254929577463 1.2426607042253535 -1.5115229577464788
C -0.4680254929577463 1.8513207042253539 1.4698070422535212
H -1.3950654929577464 1.5446707042253527 3.404047042253521
H 0.1461845070422536 1.9972507042253538 -0.6030529577464789
C -1.8679654929577463 -2.0866092957746467 -0.08765295774647863
C -0.6628654929577462 -1.814079295774647 0.5787970422535212
C -1.8438954929577462 -2.213429295774647 -1.4808029577464787
C 0.5129345070422537 -1.5763292957746469 -0.13022295774647863
H -0.6401854929577462 -1.7032692957746463 1.6609470422535213
C -0.6547954929577462 -1.9962392957746466 -2.1933129577464787
H -2.7578654929577464 -2.4351492957746466 -2.026182957746479
C 0.5308845070422537 -1.645769295774647 -1.5261029577464789
H 1.4044045070422537 -1.2610992957746463 0.41551704225352126
H -0.6795654929577464 -2.0467992957746466 -3.2793129577464786
C 1.7843245070422535 -1.2521692957746469 -2.2771629577464787
H 1.4981245070422535 -0.9384492957746469 -3.290282957746479
H 2.241984507042254 -0.38631929577464685 -1.8135029577464787
C 0.9385645070422537 2.0647807042253534 1.9815670422535212
H 1.0508945070422537 1.5807407042253532 2.9609770422535213
H 1.6053245070422537 1.5496207042253536 1.3096170422535214
C 3.9676945070422533 -1.6881692957746468 -3.314052957746479
H 4.795084507042254 -2.398849295774647 -3.4044129577464783
H 3.548404507042253 -1.4816192957746468 -4.303802957746479
H 4.307714507042253 -0.7637192957746466 -2.851282957746479
C 2.344694507042253 -3.565079295774647 -3.101282957746479
H 1.6334345070422536 -4.047909295774646 -2.4251929577464786
H 1.8561845070422536 -3.293109295774647 -4.041792957746479
H 3.1808045070422537 -4.243519295774647 -3.298122957746479
C 3.5156645070422536 -2.648489295774647 -1.1110629577464786
H 3.9311845070422535 -1.748249295774647 -0.6771029577464787
H 2.767184507042254 -3.1044092957746465 -0.45972295774647876
H 4.319224507042254 -3.371819295774647 -1.2863129577464787
C 2.963994507042253 3.381090704225353 2.401027042253521
H 3.3337945070422537 4.369820704225353 2.6912870422535216
H 3.120994507042253 2.671350704225353 3.2183370422535216
H 3.4665445070422534 3.0664207042253535 1.4881370422535212
C 1.2973745070422538 4.282440704225354 0.8488370422535213
H 1.7592145070422538 3.7367207042253527 0.02653704225352116
H 0.23311450704225378 4.4484607042253534 0.6605570422535213
H 1.7921845070422535 5.251370704225354 0.9736770422535213
C 0.7724845070422537 4.194670704225353 3.2772470422535216
H -0.2956954929577462 4.278220704225354 3.057857042253521
H 0.9298945070422537 3.612620704225354 4.190337042253521
H 1.2046345070422537 5.193640704225353 3.3918370422535213
N 2.876084507042253 -2.324759295774647 -2.4576629577464786
N 1.4527845070422536 3.504690704225353 2.1388470422535213
C -3.593905492957746 -3.637819295774647 0.8297870422535213
H -2.8952554929577463 -1.8680692957746468 1.7595270422535212
H -5.022615492957747 -1.2402792957746467 1.1579970422535213
H -4.898275492957747 -1.7933092957746464 -0.48931295774647876
H -3.883675492957746 0.07871070422535364 -1.2758929577464788
H -3.8751654929577466 -4.038529295774646 -0.1505529577464788
H -4.4603554929577465 -3.7321892957746465 1.4932570422535212
H -2.7953554929577464 -4.271929295774647 1.2313670422535212
H -5.648775492957746 1.147700704225353 0.9733970422535213
H -6.189795492957747 0.5254307042253537 -0.5943629577464788
H -5.2178854929577465 2.002970704225354 -0.5139729577464787
C 3.6710445070422537 1.0263707042253536 -0.27764295774647874
O 2.7356545070422538 1.6631507042253526 -0.7327029577464788
O 3.650814507042253 0.3883007042253537 0.7790570422535212
O 4.756604507042254 0.8696707042253538 -0.8334829577464786
O -2.892487400338756 -10.934314578915135 -1.8766398474071835
H -2.160094831105366 -11.515604805501475 -1.6223365758849413
H -2.6659023525517904 -10.65186710591594 -2.775441597191722
O -9.672607941612766 2.3256824530937847 -2.491696131773319
H -9.92962495347043 2.244355637147271 -1.560946132297756
H -9.501870725953953 3.272711817632175 -2.605477194306101
O -4.100857432311438 -4.2164621215521985 -8.032823778647984
H -3.8144822069715474 -3.312888900398588 -8.234099761382183
H -4.242236225579978 -4.209126559813448 -7.074220539216828
O -2.1202620383577466 -10.843280844422614 3.5113522327049824
H -2.0392277927257814 -10.946113198332537 4.471470097825824
H -2.32918007647009 -11.73580723837699 3.197167838206967
O 7.728503338654624 9.531755555417703 9.378961879976893
H 8.325074500445012 10.239131038463798 9.091402961135259
H 8.303039120380543 8.754474855256612 9.447557018096688
O -13.271519123237958 -1.8209139526195304 -4.382836345409448
H -14.07375673333263 -1.3038579824850471 -4.5502737892440885
H -13.149602439757532 -1.7597319640580695 -3.4234849859666205
O -2.6628030547189923 -1.1552136771604469 10.420138582255777
H -2.296973319330885 -1.1465344471950194 11.317390293077814
H -1.9084709044307115 -0.9239995317659386 9.85756861299778
O 3.9181598386247645 11.157223030514047 -0.4923138274486982
H 4.247579345255285 11.812041605623843 -1.1260825386063926
H 4.539576044253274 11.215630326560515 0.24889628544157105
O -5.650826589892546 -9.005962472717478 -5.385259147152178
H -6.5179027687124815 -9.35248212143586 -5.12627963044263
H -5.858226276252664 -8.186360022418267 -5.858755860827418
O 4.875535443932572 -10.97017502483602 5.186720497525739
H 4.431551026734222 -11.449737610621161 4.471273140622301
H 4.361164407153402 -10.153802837792671 5.275719559570109
O 3.0838037460076624 -0.5764203632449294 -8.584260988053957
H 3.6330261777538504 -1.2261287606700395 -9.048158687640946
H 2.636532782462373 -0.09631971050995214 -9.297292539047824
O 3.2528923287593 7.7582471659171555 -11.955443831694112
H 3.093709047536124 7.679431748130846 -12.908027775395764
H 2.408965787072979 7.50056700460234 -11.555005483128271
O -5.779550547315578 7.560677983660103 -1.7960710554953971
H -5.690806339650118 8.005799357427469 -2.6522011771015013
H -5.163240326493277 6.815245066013862 -1.8548368729353075
O -1.6828174761915307 3.463970095353969 -3.0777619466210417
H -1.6588340746609807 3.427575679431782 -2.1097394263041287
H -1.2289528397245753 2.6535456634119456 -3.353771142439164
O -2.037043410119726 -1.5572379131148653 4.319973381389798
H -2.27002647296309 -1.9436154673703014 5.1775272484417245
H -2.1963974639336454 -2.2750090371745078 3.688805540558829
O -4.9803069988600654 -5.816788132781111 6.592123604447948
H -5.6154640171415 -6.306034261769886 7.136348874255715
H -5.166400029225435 -4.887427256586251 6.793666875602685
O 8.213772110685754 2.796749137525356 3.290293423964831
H 7.616055600810165 3.354168314749541 2.7697300833569294
H 8.479616520569998 2.098592739145216 2.673149731269063
O -1.2752497913203569 -6.102903828286198 4.849036686818537
H -1.023652962895401 -6.6162199416053795 5.631451513258702
H -0.44533513306017214 -6.000603140594787 4.3594060366313325
O -6.310870054442983 2.748416281287298 5.64757284500124
H -6.436473666575925 2.4242321548705243 6.552059296916663
H -6.329670638832704 3.712827769711251 5.739871075333681
O 2.6371519752690133 5.089364949463718 -5.8546849734250515
H 2.6070812559149417 5.554916628677564 -5.005376582604205
H 2.380162953916031 5.764261674924053 -6.500775522161801
O 3.9465617158891355 7.706830731790181 7.547048087808314
H 3.54817640151963 7.668412912574564 8.429533537751501
H 3.3842165443817644 8.330321228699361 7.063323525018403
O 2.652666565433174 -3.998811608125518 -7.731527675406317
H 3.205127561658417 -3.354953959194825 -7.263338042390749
H 2.528165883621886 -3.6063810832617738 -8.60871625700305
O -5.004198643588165 -10.620970842669507 -1.4589100822005738
H -5.276530622644363 -9.871718317358289 -2.0097488094139915
H -5.705795457705209 -10.6899313021337 -0.7941031104025194
O 8.757543809081021 -1.718697260274423 -1.0155279506962578
H 9.52162945899286 -2.2592124320744653 -1.2664937363180726
H 9.149258956879853 -0.8849663984576503 -0.7148386802870814
C 10.24888501653389 1.0210318011177555 -9.93512517353587
O 10.11939359627429 0.7311166776866791 -8.781002367858285
O 10.378376436793493 1.3109469245488319 -11.08924797921345