146

C -5.3564454929577465 1.0091607042253532 -0.0734429577464788
C -4.079135492957747 0.16955070422535368 -0.19788295774647868
C -4.333545492957747 -1.2789292957746463 0.3017270422535212
C -3.1403854929577464 -2.1745492957746464 0.7330270422535212
C -2.905235492957746 0.902300704225353 0.41966704225352136
C -2.7423854929577463 1.056130704225354 1.8024770422535212
C -1.8861754929577463 1.3499307042253532 -0.4326129577464788
C -1.5304554929577463 1.5279207042253526 2.3254170422535214
H -3.5237954929577464 0.7301007042253529 2.484817042253521
C -0.6776454929577462 1.8010507042253527 0.08546704225352131
H -1.9759254929577463 1.2426607042253535 -1.5115229577464788
C -0.4680254929577463 1.8513207042253539 1.4698070422535212
H -1.3950654929577464 1.5446707042253527 3.404047042253521
H 0.1461845070422536 1.9972507042253538 -0.6030529577464789
C -1.8679654929577463 -2.0866092957746467 -0.08765295774647863
C -0.6628654929577462 -1.814079295774647 0.5787970422535212
C -1.8438954929577462 -2.213429295774647 -1.4808029577464787
C 0.5129345070422537 -1.5763292957746469 -0.13022295774647863
H -0.6401854929577462 -1.7032692957746463 1.6609470422535213
C -0.6547954929577462 -1.9962392957746466 -2.1933129577464787
H -2.7578654929577464 -2.4351492957746466 -2.026182957746479
C 0.5308845070422537 -1.645769295774647 -1.5261029577464789
H 1.4044045070422537 -1.2610992957746463 0.41551704225352126
H -0.6795654929577464 -2.0467992957746466 -3.2793129577464786
C 1.7843245070422535 -1.2521692957746469 -2.2771629577464787
H 1.4981245070422535 -0.9384492957746469 -3.290282957746479
H 2.241984507042254 -0.38631929577464685 -1.8135029577464787
C 0.9385645070422537 2.0647807042253534 1.9815670422535212
H 1.0508945070422537 1.5807407042253532 2.9609770422535213
H 1.6053245070422537 1.5496207042253536 1.3096170422535214
C 3.9676945070422533 -1.6881692957746468 -3.314052957746479
H 4.795084507042254 -2.398849295774647 -3.4044129577464783
H 3.548404507042253 -1.4816192957746468 -4.303802957746479
H 4.307714507042253 -0.7637192957746466 -2.851282957746479
C 2.344694507042253 -3.565079295774647 -3.101282957746479
H 1.6334345070422536 -4.047909295774646 -2.4251929577464786
H 1.8561845070422536 -3.293109295774647 -4.041792957746479
H 3.1808045070422537 -4.243519295774647 -3.298122957746479
C 3.5156645070422536 -2.648489295774647 -1.1110629577464786
H 3.9311845070422535 -1.748249295774647 -0.6771029577464787
H 2.767184507042254 -3.1044092957746465 -0.45972295774647876
H 4.319224507042254 -3.371819295774647 -1.2863129577464787
C 2.963994507042253 3.381090704225353 2.401027042253521
H 3.3337945070422537 4.369820704225353 2.6912870422535216
H 3.120994507042253 2.671350704225353 3.2183370422535216
H 3.4665445070422534 3.0664207042253535 1.4881370422535212
C 1.2973745070422538 4.282440704225354 0.8488370422535213
H 1.7592145070422538 3.7367207042253527 0.02653704225352116
H 0.23311450704225378 4.4484607042253534 0.6605570422535213
H 1.7921845070422535 5.251370704225354 0.9736770422535213
C 0.7724845070422537 4.194670704225353 3.2772470422535216
H -0.2956954929577462 4.278220704225354 3.057857042253521
H 0.9298945070422537 3.612620704225354 4.190337042253521
H 1.2046345070422537 5.193640704225353 3.3918370422535213
N 2.876084507042253 -2.324759295774647 -2.4576629577464786
N 1.4527845070422536 3.504690704225353 2.1388470422535213
C -3.593905492957746 -3.637819295774647 0.8297870422535213
H -2.8952554929577463 -1.8680692957746468 1.7595270422535212
H -5.022615492957747 -1.2402792957746467 1.1579970422535213
H -4.898275492957747 -1.7933092957746464 -0.48931295774647876
H -3.883675492957746 0.07871070422535364 -1.2758929577464788
H -3.8751654929577466 -4.038529295774646 -0.1505529577464788
H -4.4603554929577465 -3.7321892957746465 1.4932570422535212
H -2.7953554929577464 -4.271929295774647 1.2313670422535212
H -5.648775492957746 1.147700704225353 0.9733970422535213
H -6.189795492957747 0.5254307042253537 -0.5943629577464788
H -5.2178854929577465 2.002970704225354 -0.5139729577464787
C 3.6710445070422537 1.0263707042253536 -0.27764295774647874
O 2.7356545070422538 1.6631507042253526 -0.7327029577464788
O 3.650814507042253 0.3883007042253537 0.7790570422535212
O 4.756604507042254 0.8696707042253538 -0.8334829577464786
O 0.4248299194327245 12.92051663290458 -1.9431945189361113
H 0.20269557567758412 13.486711025000641 -2.697546956847893
H 1.3701731221705682 12.740214515294365 -2.056240172203392
O -0.3913894413530654 0.11923665326318433 -2.2047438697699766
H -0.27538506959031916 -0.2666781972660383 -1.323506063742035
H 0.21868663390812715 0.8720347473322105 -2.2127536300623074
O -11.488448155151449 3.0110090339939233 -0.47155743502648084
H -10.93597424302244 3.7201092353252085 -0.10973311606933844
H -11.03181066343304 2.1991344662807024 -0.20452966164402797
O -7.845704070475962 -2.862674827064274 -9.271398396871497
H -7.083093744735988 -3.4421306938593776 -9.124348247563487
H -7.664006119459005 -2.4497717259008485 -10.128987358989052
O 11.550832405013596 -3.330136926931094 -7.910591867605733
H 11.740073259855553 -2.388493160167136 -8.038897254372118
H 11.128587716412484 -3.5991803988930773 -8.740222494718061
O 10.49190508696007 3.8473139324298264 5.940089297738406
H 10.525621041606621 3.3058158030794305 6.742965606525939
H 10.283083160189637 4.7357934453484685 6.26560350990699
O -2.4495531409339772 2.229800529676786 -6.754351941406165
H -2.4243037290827405 2.0338432457049977 -7.702998644325417
H -2.356328162228416 3.193368323927591 -6.711829552856298
O 7.467070654605619 -1.4804895196879335 -7.991100467532193
H 8.139831702423091 -2.159336856172948 -7.83133118642115
H 7.828782313450482 -0.6880308726996409 -7.5666762540745
O -6.923612801852543 6.1339549610699775 -4.609270849670371
H -6.947889757458946 5.256617042838202 -4.19859316150212
H -6.369242059978745 6.657160715391715 -4.011031128907101
O -0.9174220542754639 6.760316012980134 -4.095863511143483
H -0.7151340634848231 6.921556119089891 -3.1620281113734796
H -1.8796745663834398 6.8619542095601584 -4.147841624208967
O 9.347588647070973 -8.407961493323668 1.5775834695584803
H 9.980326526679612 -8.460599361293449 2.309593980045838
H 9.5737290458427 -7.5777471667571845 1.1319753050157666
O -2.2767687436590327 -6.352825547863646 1.1809908183019244
H -3.0672148651143836 -5.858975007190333 1.4460831219489167
H -1.7731642479087508 -6.447488545326376 2.0034161176887286
O 4.680567757107822 6.791255174471022 8.79820910617877
H 4.508840479810563 6.5367770193579275 9.717294503572456
H 5.220918112809339 6.065486169232832 8.451448686827295
O 3.6398544783860363 1.0472418151242857 4.672460177646937
H 3.444967683750017 0.1365215610489945 4.404924922038381
H 3.10685941598868 1.1756200236351497 5.471457826792151
O 2.1240148700807953 -2.6068890767088604 9.313107119806658
H 1.9418448579125005 -2.7355050660322675 10.256102014202678
H 2.1742456582914294 -3.507644382873283 8.959442461362569
O 13.796658800522616 3.0755082462631376 -3.133961967264492
H 13.233891920606775 3.8514891752630476 -2.9921367452543506
H 13.796656196701713 2.9590467245380943 -4.095938400578067
O -1.8363208477103001 -5.4111340135290105 6.7293594198694375
H -1.5383879544716321 -5.632679223520443 7.624413087509703
H -2.3466471287441957 -4.595937574517095 6.847612525572437
O 2.214604131701354 -7.891768392868122 2.806548939136001
H 2.014186496398903 -7.519593403306444 3.6784926904781043
H 1.4525783531297882 -8.458194303719374 2.6130538626902986
O -8.759467271497154 -8.692907169676081 5.045504646120177
H -8.74751729672191 -9.311144397755754 4.299443465774198
H -9.203800588945446 -9.18630974063314 5.751255133387711
O 6.807567269113672 -2.0199243135286986 -2.9607418807491404
H 7.185459659553571 -2.4295924176700394 -3.753418827933085
H 6.7533634007188645 -1.0791852230288321 -3.18664860609507
O 6.417118643543565 8.337689800324869 -8.881713020769146
H 5.460378637039787 8.18490364858425 -8.865211242336393
H 6.685060964850188 8.048683602273272 -9.766949867178388
O 5.460424294380884 -7.129096230979714 -0.14670974909333526
H 5.510541666813729 -7.1490479786951315 0.820790914288106
H 5.469886871484716 -8.064113894308452 -0.4009033233587409
O 0.8714080611758277 7.944415756935555 6.0912447631636155
H 1.3486148201262123 8.38020613801475 5.369214424555243
H 0.8163079133815376 7.018699675276696 5.8102186893355565
O -6.265912776602677 3.825412634608438 -4.51382393162004
H -6.975920054899218 3.199445470369055 -4.721241700772168
H -5.87085238979844 4.025248393258291 -5.37577225062932
C 2.37842757591284 -10.58104548204345 -2.840074343309298
O 1.3976718044693355 -11.098051648942139 -2.388808349167281
O 3.359183347356344 -10.064039315144761 -3.291340337451314