146

C -5.3564454929577465 1.0091607042253532 -0.0734429577464788
C -4.079135492957747 0.16955070422535368 -0.19788295774647868
C -4.333545492957747 -1.2789292957746463 0.3017270422535212
C -3.1403854929577464 -2.1745492957746464 0.7330270422535212
C -2.905235492957746 0.902300704225353 0.41966704225352136
C -2.7423854929577463 1.056130704225354 1.8024770422535212
C -1.8861754929577463 1.3499307042253532 -0.4326129577464788
C -1.5304554929577463 1.5279207042253526 2.3254170422535214
H -3.5237954929577464 0.7301007042253529 2.484817042253521
C -0.6776454929577462 1.8010507042253527 0.08546704225352131
H -1.9759254929577463 1.2426607042253535 -1.5115229577464788
C -0.4680254929577463 1.8513207042253539 1.4698070422535212
H -1.3950654929577464 1.5446707042253527 3.404047042253521
H 0.1461845070422536 1.9972507042253538 -0.6030529577464789
C -1.8679654929577463 -2.0866092957746467 -0.08765295774647863
C -0.6628654929577462 -1.814079295774647 0.5787970422535212
C -1.8438954929577462 -2.213429295774647 -1.4808029577464787
C 0.5129345070422537 -1.5763292957746469 -0.13022295774647863
H -0.6401854929577462 -1.7032692957746463 1.6609470422535213
C -0.6547954929577462 -1.9962392957746466 -2.1933129577464787
H -2.7578654929577464 -2.4351492957746466 -2.026182957746479
C 0.5308845070422537 -1.645769295774647 -1.5261029577464789
H 1.4044045070422537 -1.2610992957746463 0.41551704225352126
H -0.6795654929577464 -2.0467992957746466 -3.2793129577464786
C 1.7843245070422535 -1.2521692957746469 -2.2771629577464787
H 1.4981245070422535 -0.9384492957746469 -3.290282957746479
H 2.241984507042254 -0.38631929577464685 -1.8135029577464787
C 0.9385645070422537 2.0647807042253534 1.9815670422535212
H 1.0508945070422537 1.5807407042253532 2.9609770422535213
H 1.6053245070422537 1.5496207042253536 1.3096170422535214
C 3.9676945070422533 -1.6881692957746468 -3.314052957746479
H 4.795084507042254 -2.398849295774647 -3.4044129577464783
H 3.548404507042253 -1.4816192957746468 -4.303802957746479
H 4.307714507042253 -0.7637192957746466 -2.851282957746479
C 2.344694507042253 -3.565079295774647 -3.101282957746479
H 1.6334345070422536 -4.047909295774646 -2.4251929577464786
H 1.8561845070422536 -3.293109295774647 -4.041792957746479
H 3.1808045070422537 -4.243519295774647 -3.298122957746479
C 3.5156645070422536 -2.648489295774647 -1.1110629577464786
H 3.9311845070422535 -1.748249295774647 -0.6771029577464787
H 2.767184507042254 -3.1044092957746465 -0.45972295774647876
H 4.319224507042254 -3.371819295774647 -1.2863129577464787
C 2.963994507042253 3.381090704225353 2.401027042253521
H 3.3337945070422537 4.369820704225353 2.6912870422535216
H 3.120994507042253 2.671350704225353 3.2183370422535216
H 3.4665445070422534 3.0664207042253535 1.4881370422535212
C 1.2973745070422538 4.282440704225354 0.8488370422535213
H 1.7592145070422538 3.7367207042253527 0.02653704225352116
H 0.23311450704225378 4.4484607042253534 0.6605570422535213
H 1.7921845070422535 5.251370704225354 0.9736770422535213
C 0.7724845070422537 4.194670704225353 3.2772470422535216
H -0.2956954929577462 4.278220704225354 3.057857042253521
H 0.9298945070422537 3.612620704225354 4.190337042253521
H 1.2046345070422537 5.193640704225353 3.3918370422535213
N 2.876084507042253 -2.324759295774647 -2.4576629577464786
N 1.4527845070422536 3.504690704225353 2.1388470422535213
C -3.593905492957746 -3.637819295774647 0.8297870422535213
H -2.8952554929577463 -1.8680692957746468 1.7595270422535212
H -5.022615492957747 -1.2402792957746467 1.1579970422535213
H -4.898275492957747 -1.7933092957746464 -0.48931295774647876
H -3.883675492957746 0.07871070422535364 -1.2758929577464788
H -3.8751654929577466 -4.038529295774646 -0.1505529577464788
H -4.4603554929577465 -3.7321892957746465 1.4932570422535212
H -2.7953554929577464 -4.271929295774647 1.2313670422535212
H -5.648775492957746 1.147700704225353 0.9733970422535213
H -6.189795492957747 0.5254307042253537 -0.5943629577464788
H -5.2178854929577465 2.002970704225354 -0.5139729577464787
C 3.6710445070422537 1.0263707042253536 -0.27764295774647874
O 2.7356545070422538 1.6631507042253526 -0.7327029577464788
O 3.650814507042253 0.3883007042253537 0.7790570422535212
O 4.756604507042254 0.8696707042253538 -0.8334829577464786
O 9.0178035391058 -2.5268705233893356 7.229771021366371
H 8.19556943221869 -3.037533715200379 7.275831144042266
H 8.954094501979982 -1.9127916048866653 7.976637933700216
O 5.4117535090380535 13.701918820534745 2.2545975367950994
H 6.376550614804948 13.682431029384169 2.3426550611748818
H 5.140210672756127 12.79314887553883 2.4530002067269487
O -7.002348085021917 2.561218639109438 4.883779602909283
H -7.319188438062405 2.114840464372919 4.084200918410957
H -7.238478392481916 1.9532404753794712 5.600415476018064
O 1.2263741038293905 7.148155401575656 2.4183166625558163
H 1.1554509261964652 7.0244145311079675 1.4598671559304817
H 0.9881482874415408 6.283115026154615 2.7842614037364557
O 1.581880162627478 -3.952260436773615 2.1563627814907087
H 1.369073496090493 -3.7649834175899572 1.2297517532468711
H 2.192721782973908 -3.2421014502594288 2.404372202734522
O -5.805979197248595 -4.7929060445078555 -6.228376177288854
H -5.733253415631764 -4.761368005110921 -5.262620685635184
H -6.7571557974046605 -4.885439569138624 -6.38857157808099
O -9.224552643319772 0.7785924563084712 3.489595619816257
H -9.22790797290872 0.8242944010751216 2.5216764956597517
H -8.432914078921312 1.2758031880434428 3.7446481946017722
O 0.85068898698978 -11.346093646943036 2.632719552043168
H -0.05760190156148859 -11.194791696071547 2.3309203831622223
H 1.3976865396869882 -10.987763490816295 1.917628564228715
O 2.545561350695301 -5.67566237558463 5.595914558849334
H 2.592200423049662 -5.359265049415321 4.681209750824998
H 3.3972838978443862 -5.414986558088462 5.977462413188181
O -1.0313718784562154 8.021379776202696 5.1228530649243655
H -1.7336146535632104 7.995517141317901 5.790051360655736
H -1.388376636466969 8.596452369634651 4.4294548681130905
O 4.950970775892522 -6.7027693486111914 2.207782435065888
H 5.5986691860447495 -6.001782498927604 2.040236730982024
H 5.002017960482697 -6.844702425586687 3.1649716174669877
O -7.243915881115329 -8.467219572740284 4.787875868739219
H -7.344560886564793 -7.97666645309206 3.958300328730069
H -7.898205259426077 -9.17873094030015 4.719913176305649
O -0.03204381947623958 8.837120724946658 -3.9250723186901224
H -0.2414049371616307 8.997475671133166 -2.99264453567685
H 0.8225036306573026 8.381074526069849 -3.898008241756399
O 2.351922286805934 9.661059568949064 -0.7870202009628784
H 1.6747346312922518 9.011808428111415 -0.5444151881521475
H 2.9121191471990016 9.189062886840961 -1.4213391696093263
O -6.459678018161372 -0.8109929302717566 -7.203294151073278
H -6.85747253955041 -1.6939290342246804 -7.1693720050724865
H -7.2050718601713 -0.21223715292441694 -7.045682337788664
O 12.264689543887195 -12.287160963390479 1.5592650691788066
H 12.782442928879641 -12.481263887929963 2.3550180735175186
H 11.869748214747695 -11.421452297534083 1.7423819627158745
O -5.5762152940547765 -5.846960283307166 3.8887079577363237
H -5.696358536963147 -4.908049913623713 3.681391108965314
H -6.048736577437149 -5.963982031891284 4.726557282739925
O 4.417082245576102 -5.434169486807536 0.9410616604760813
H 4.379568482745446 -5.4042031580696905 1.908874707319459
H 3.744546964631297 -4.795304253910635 0.660866274396868
O 4.887618575679001 7.064950690078825 10.131930424109012
H 5.137621238938844 7.01167270401865 11.06661084086351
H 5.15976461931539 6.209239800379547 9.767708859010062
O 8.434144582508054 -7.706976958151097 -10.164752852075601
H 8.359958855507228 -8.339835158788741 -10.894790065301779
H 8.571846048746318 -6.855456646278384 -10.606242839463798
O 4.528027891006312 -8.475995228236869 -2.1492431934098333
H 5.048619904238851 -8.957938533706676 -2.809305283649326
H 3.8040952553061116 -9.082895024694755 -1.9334745202259427
O -4.127928477395606 -8.064909415470275 -10.88259399267747
H -3.756580770036293 -8.571993950595447 -11.620112474734611
H -4.211727917917461 -7.166223954012204 -11.235161772589533
O -7.423154058010853 -6.603348593141926 -10.10780440491191
H -7.910734434208262 -6.537844104461314 -10.942634864112991
H -6.541657867156496 -6.90458937255835 -10.374600961534822
O -12.37279463496784 -5.098328915116399 -2.9872488633527614
H -12.812122003804252 -4.740946188610482 -2.200968756338427
H -11.428655057833083 -5.020821161911817 -2.783398547235821
C 5.888182095247528 5.98571053481283 6.6087797025610495
O 5.71925738197589 5.363959302431777 5.5999645046289706
O 6.057106808519167 6.607461767193882 7.617594900493127