146

C -5.3564454929577465 1.0091607042253532 -0.0734429577464788
C -4.079135492957747 0.16955070422535368 -0.19788295774647868
C -4.333545492957747 -1.2789292957746463 0.3017270422535212
C -3.1403854929577464 -2.1745492957746464 0.7330270422535212
C -2.905235492957746 0.902300704225353 0.41966704225352136
C -2.7423854929577463 1.056130704225354 1.8024770422535212
C -1.8861754929577463 1.3499307042253532 -0.4326129577464788
C -1.5304554929577463 1.5279207042253526 2.3254170422535214
H -3.5237954929577464 0.7301007042253529 2.484817042253521
C -0.6776454929577462 1.8010507042253527 0.08546704225352131
H -1.9759254929577463 1.2426607042253535 -1.5115229577464788
C -0.4680254929577463 1.8513207042253539 1.4698070422535212
H -1.3950654929577464 1.5446707042253527 3.404047042253521
H 0.1461845070422536 1.9972507042253538 -0.6030529577464789
C -1.8679654929577463 -2.0866092957746467 -0.08765295774647863
C -0.6628654929577462 -1.814079295774647 0.5787970422535212
C -1.8438954929577462 -2.213429295774647 -1.4808029577464787
C 0.5129345070422537 -1.5763292957746469 -0.13022295774647863
H -0.6401854929577462 -1.7032692957746463 1.6609470422535213
C -0.6547954929577462 -1.9962392957746466 -2.1933129577464787
H -2.7578654929577464 -2.4351492957746466 -2.026182957746479
C 0.5308845070422537 -1.645769295774647 -1.5261029577464789
H 1.4044045070422537 -1.2610992957746463 0.41551704225352126
H -0.6795654929577464 -2.0467992957746466 -3.2793129577464786
C 1.7843245070422535 -1.2521692957746469 -2.2771629577464787
H 1.4981245070422535 -0.9384492957746469 -3.290282957746479
H 2.241984507042254 -0.38631929577464685 -1.8135029577464787
C 0.9385645070422537 2.0647807042253534 1.9815670422535212
H 1.0508945070422537 1.5807407042253532 2.9609770422535213
H 1.6053245070422537 1.5496207042253536 1.3096170422535214
C 3.9676945070422533 -1.6881692957746468 -3.314052957746479
H 4.795084507042254 -2.398849295774647 -3.4044129577464783
H 3.548404507042253 -1.4816192957746468 -4.303802957746479
H 4.307714507042253 -0.7637192957746466 -2.851282957746479
C 2.344694507042253 -3.565079295774647 -3.101282957746479
H 1.6334345070422536 -4.047909295774646 -2.4251929577464786
H 1.8561845070422536 -3.293109295774647 -4.041792957746479
H 3.1808045070422537 -4.243519295774647 -3.298122957746479
C 3.5156645070422536 -2.648489295774647 -1.1110629577464786
H 3.9311845070422535 -1.748249295774647 -0.6771029577464787
H 2.767184507042254 -3.1044092957746465 -0.45972295774647876
H 4.319224507042254 -3.371819295774647 -1.2863129577464787
C 2.963994507042253 3.381090704225353 2.401027042253521
H 3.3337945070422537 4.369820704225353 2.6912870422535216
H 3.120994507042253 2.671350704225353 3.2183370422535216
H 3.4665445070422534 3.0664207042253535 1.4881370422535212
C 1.2973745070422538 4.282440704225354 0.8488370422535213
H 1.7592145070422538 3.7367207042253527 0.02653704225352116
H 0.23311450704225378 4.4484607042253534 0.6605570422535213
H 1.7921845070422535 5.251370704225354 0.9736770422535213
C 0.7724845070422537 4.194670704225353 3.2772470422535216
H -0.2956954929577462 4.278220704225354 3.057857042253521
H 0.9298945070422537 3.612620704225354 4.190337042253521
H 1.2046345070422537 5.193640704225353 3.3918370422535213
N 2.876084507042253 -2.324759295774647 -2.4576629577464786
N 1.4527845070422536 3.504690704225353 2.1388470422535213
C -3.593905492957746 -3.637819295774647 0.8297870422535213
H -2.8952554929577463 -1.8680692957746468 1.7595270422535212
H -5.022615492957747 -1.2402792957746467 1.1579970422535213
H -4.898275492957747 -1.7933092957746464 -0.48931295774647876
H -3.883675492957746 0.07871070422535364 -1.2758929577464788
H -3.8751654929577466 -4.038529295774646 -0.1505529577464788
H -4.4603554929577465 -3.7321892957746465 1.4932570422535212
H -2.7953554929577464 -4.271929295774647 1.2313670422535212
H -5.648775492957746 1.147700704225353 0.9733970422535213
H -6.189795492957747 0.5254307042253537 -0.5943629577464788
H -5.2178854929577465 2.002970704225354 -0.5139729577464787
C 3.6710445070422537 1.0263707042253536 -0.27764295774647874
O 2.7356545070422538 1.6631507042253526 -0.7327029577464788
O 3.650814507042253 0.3883007042253537 0.7790570422535212
O 4.756604507042254 0.8696707042253538 -0.8334829577464786
O 0.7120285423715353 -10.816791246021172 10.222847842055991
H 0.46696595543556363 -10.826417536904 11.16030131818592
H -0.1370351800449292 -10.865691762150757 9.758454173819052
O 7.708965762633476 4.025135473836923 8.74712865759569
H 7.5862364124581845 3.1696811895370085 8.308833288034851
H 6.8943752862288905 4.509998197997711 8.546349080022846
O 2.614894617714443 -9.401086238409878 -9.30399100240755
H 3.1240772412346383 -9.558783115331982 -10.113207974433042
H 2.2063465192772833 -8.534579198440172 -9.449647946101692
O 0.43287055990831846 6.582591075903356 -1.4795862345463464
H -0.19085873590291924 5.8419935610569285 -1.5175920689683726
H 1.3023570216435747 6.1599228827831585 -1.5452127206903725
O 4.359374487866188 11.5562066349588 -8.581961560364935
H 4.236759282688785 11.694239697043463 -9.533213231654313
H 4.57295185354925 10.61395098074215 -8.507793270209104
O 0.35923402918860425 -9.787086515050207 -5.193721075882247
H 0.7907210206374924 -9.698947246885883 -4.330576938140557
H 0.7230834460678768 -9.054465766741915 -5.713184631182146
O -12.820102774075133 0.8675021161556424 4.971949644203844
H -13.096798793536738 0.06421878694757943 5.437935226309683
H -11.931150093786675 0.656414465373814 4.649200391384613
O -3.345607570559311 -12.604602828950501 0.07551426938898198
H -3.5914845362490326 -12.73960428338581 1.0030305667895012
H -4.005953477345395 -11.975893526896092 -0.25255560304845903
O 3.570102592249998 10.384635432956102 0.6850474139295843
H 3.734330683683825 11.271621933421137 0.33113861370444875
H 2.6041839213986417 10.329246133266647 0.7388534645248472
O 6.132318441128561 8.361344015019327 1.8734725373832875
H 6.190631007261244 8.153999521057987 2.8182345509903852
H 6.900615394252172 8.928916544695635 1.7105518214573845
O -4.275125012520709 -0.40296342299460053 -4.139180052099744
H -4.507372064777972 -1.1089260763103193 -4.760988218451107
H -4.909415069194336 -0.5111797063531138 -3.414661381311311
O -6.491032631726954 -7.641539231802682 -4.419245000404576
H -6.857558615049899 -6.914964343559276 -4.945282063949754
H -7.214840952093736 -7.887808702328995 -3.823917521150924
O -9.122062587581535 5.29129602701745 -2.937636014284004
H -9.009615116167598 4.671422943483712 -2.2013749984866253
H -9.945808925912148 5.75660105719475 -2.7281243361402545
O 0.08889102844602537 -9.937274993059997 2.496128961440193
H 0.8745376680777306 -9.606409144000356 2.035418092823602
H -0.5307312146756895 -9.19286531517736 2.466389230380829
O 2.963234479068217 5.468579761406585 -4.5798512669453295
H 2.6015000821434717 5.550860509216569 -3.6846722560646445
H 2.556329045236381 6.202042050563134 -5.065055329792459
O 5.848840078893524 -2.0361642800051323 -8.568692340862453
H 5.492212443590965 -2.152775234629935 -9.462104883812238
H 5.950790043958164 -2.9410539492247754 -8.237417778810242
O 6.1366892880355 -2.762749471550449 3.1508208335943375
H 6.720608012597507 -3.1930252176856735 3.793369712897426
H 6.570920014964418 -1.9154376758132523 2.970631097772926
O 6.504204802261318 2.869611602425491 -1.7147350636723613
H 5.620908404587704 2.9866135308208044 -2.0956095567912825
H 6.813058011340108 3.774521779883464 -1.5575434281610752
O -5.554647541421127 -6.884834455473736 -0.23573004169815226
H -5.42520217272643 -6.027890581776426 0.1976963658454407
H -5.578834754720706 -7.517059335181029 0.4982104357875228
O 9.566187249610067 -1.9502953670380174 -3.459690102309352
H 9.973265652610268 -2.0689170053249213 -2.588378770097416
H 10.001916825351543 -1.1616210461779257 -3.8161932534034584
O -5.290743022110964 0.49557332607250704 -12.230755513741382
H -4.792882022002206 0.7183920048980488 -13.031663509604297
H -4.877295002308404 1.0353955799172803 -11.54038270614009
O 11.631656752156806 3.4675681275738355 -3.8961797295905747
H 11.754997206427856 4.298423080354095 -3.413029093990532
H 12.526817988763238 3.224905525797406 -4.176827491876928
O -9.491389717549634 -5.682699904324319 0.3455917408404483
H -9.761354636563691 -6.183478317784317 -0.43882350634322465
H -9.734022474205743 -6.2587832471268 1.0860100495301899
O 1.2634023470788591 -0.45281123810661694 -10.231394625838217
H 1.7046850299707277 -0.0857388048847536 -9.450693159560398
H 1.9875671849787564 -0.8272270353892004 -10.7551885190774
C -2.4644633990675278 12.659473521706843 -4.50516672173184
O -2.3088508607675604 12.250882474173277 -3.3908703737618464
O -2.6200759373674947 13.06806456924041 -5.619463069701833