146

C -5.3564454929577465 1.0091607042253532 -0.0734429577464788
C -4.079135492957747 0.16955070422535368 -0.19788295774647868
C -4.333545492957747 -1.2789292957746463 0.3017270422535212
C -3.1403854929577464 -2.1745492957746464 0.7330270422535212
C -2.905235492957746 0.902300704225353 0.41966704225352136
C -2.7423854929577463 1.056130704225354 1.8024770422535212
C -1.8861754929577463 1.3499307042253532 -0.4326129577464788
C -1.5304554929577463 1.5279207042253526 2.3254170422535214
H -3.5237954929577464 0.7301007042253529 2.484817042253521
C -0.6776454929577462 1.8010507042253527 0.08546704225352131
H -1.9759254929577463 1.2426607042253535 -1.5115229577464788
C -0.4680254929577463 1.8513207042253539 1.4698070422535212
H -1.3950654929577464 1.5446707042253527 3.404047042253521
H 0.1461845070422536 1.9972507042253538 -0.6030529577464789
C -1.8679654929577463 -2.0866092957746467 -0.08765295774647863
C -0.6628654929577462 -1.814079295774647 0.5787970422535212
C -1.8438954929577462 -2.213429295774647 -1.4808029577464787
C 0.5129345070422537 -1.5763292957746469 -0.13022295774647863
H -0.6401854929577462 -1.7032692957746463 1.6609470422535213
C -0.6547954929577462 -1.9962392957746466 -2.1933129577464787
H -2.7578654929577464 -2.4351492957746466 -2.026182957746479
C 0.5308845070422537 -1.645769295774647 -1.5261029577464789
H 1.4044045070422537 -1.2610992957746463 0.41551704225352126
H -0.6795654929577464 -2.0467992957746466 -3.2793129577464786
C 1.7843245070422535 -1.2521692957746469 -2.2771629577464787
H 1.4981245070422535 -0.9384492957746469 -3.290282957746479
H 2.241984507042254 -0.38631929577464685 -1.8135029577464787
C 0.9385645070422537 2.0647807042253534 1.9815670422535212
H 1.0508945070422537 1.5807407042253532 2.9609770422535213
H 1.6053245070422537 1.5496207042253536 1.3096170422535214
C 3.9676945070422533 -1.6881692957746468 -3.314052957746479
H 4.795084507042254 -2.398849295774647 -3.4044129577464783
H 3.548404507042253 -1.4816192957746468 -4.303802957746479
H 4.307714507042253 -0.7637192957746466 -2.851282957746479
C 2.344694507042253 -3.565079295774647 -3.101282957746479
H 1.6334345070422536 -4.047909295774646 -2.4251929577464786
H 1.8561845070422536 -3.293109295774647 -4.041792957746479
H 3.1808045070422537 -4.243519295774647 -3.298122957746479
C 3.5156645070422536 -2.648489295774647 -1.1110629577464786
H 3.9311845070422535 -1.748249295774647 -0.6771029577464787
H 2.767184507042254 -3.1044092957746465 -0.45972295774647876
H 4.319224507042254 -3.371819295774647 -1.2863129577464787
C 2.963994507042253 3.381090704225353 2.401027042253521
H 3.3337945070422537 4.369820704225353 2.6912870422535216
H 3.120994507042253 2.671350704225353 3.2183370422535216
H 3.4665445070422534 3.0664207042253535 1.4881370422535212
C 1.2973745070422538 4.282440704225354 0.8488370422535213
H 1.7592145070422538 3.7367207042253527 0.02653704225352116
H 0.23311450704225378 4.4484607042253534 0.6605570422535213
H 1.7921845070422535 5.251370704225354 0.9736770422535213
C 0.7724845070422537 4.194670704225353 3.2772470422535216
H -0.2956954929577462 4.278220704225354 3.057857042253521
H 0.9298945070422537 3.612620704225354 4.190337042253521
H 1.2046345070422537 5.193640704225353 3.3918370422535213
N 2.876084507042253 -2.324759295774647 -2.4576629577464786
N 1.4527845070422536 3.504690704225353 2.1388470422535213
C -3.593905492957746 -3.637819295774647 0.8297870422535213
H -2.8952554929577463 -1.8680692957746468 1.7595270422535212
H -5.022615492957747 -1.2402792957746467 1.1579970422535213
H -4.898275492957747 -1.7933092957746464 -0.48931295774647876
H -3.883675492957746 0.07871070422535364 -1.2758929577464788
H -3.8751654929577466 -4.038529295774646 -0.1505529577464788
H -4.4603554929577465 -3.7321892957746465 1.4932570422535212
H -2.7953554929577464 -4.271929295774647 1.2313670422535212
H -5.648775492957746 1.147700704225353 0.9733970422535213
H -6.189795492957747 0.5254307042253537 -0.5943629577464788
H -5.2178854929577465 2.002970704225354 -0.5139729577464787
C 3.6710445070422537 1.0263707042253536 -0.27764295774647874
O 2.7356545070422538 1.6631507042253526 -0.7327029577464788
O 3.650814507042253 0.3883007042253537 0.7790570422535212
O 4.756604507042254 0.8696707042253538 -0.8334829577464786
O -14.889875479942509 -0.057077672584692485 -3.7209350467479947
H -15.630931536448372 0.5424861510917054 -3.5467899941208394
H -14.59383008702986 -0.3258203429661447 -2.838270644638427
O 5.717015066870267 -4.467394665208212 -8.218633725330344
H 5.7234050296514365 -4.464670114418611 -9.187612105945025
H 6.058463160159189 -5.343572924261985 -7.984781630512151
O -8.064362925765462 -1.9637425247804146 -2.1851525975027313
H -8.098604480467184 -1.8905539229229085 -3.15078104643625
H -8.845568535064015 -2.492097818179276 -1.962620747562374
O -6.871227891362971 9.315746523713138 -1.4132991383245181
H -6.8210702487539905 9.999501317371312 -2.098084469605334
H -7.7951477744017845 9.024868823011756 -1.4402093085251029
O 1.8765229150981828 1.38370427147338 6.071927181566838
H 1.961247493797537 1.1986600078556684 5.124537228502949
H 2.213439563944177 0.5813540032362154 6.498170261381788
O 2.4562272374500074 2.9005701858169064 6.183717252157301
H 3.1394284587107637 3.3873101124605016 5.698652625557093
H 1.9065475059554324 3.596072812557539 6.574984722413815
O -2.2329924013526123 8.722560003909717 -1.6521696513454847
H -1.8678014368644797 9.027989309846772 -2.496157717274759
H -2.6892738024528073 9.501103878213394 -1.2991276381313903
O -7.344911757424286 -6.045737593644603 -6.694270276105209
H -6.74743005705794 -5.476556949467767 -7.202223392959298
H -7.737432861148523 -6.628039936580693 -7.361962652010644
O 0.4658217807763081 6.253600603111298 4.692200511026941
H 0.5841239151964829 7.196745631950698 4.880480665231151
H 1.0326018473372947 5.812211450959232 5.342506528845939
O 5.187946836753338 12.06544250991384 8.764580714189547
H 5.276884627563816 12.030299341285353 7.800307732112116
H 4.983355260785771 11.15177591500122 9.014215616965355
O 14.856489181755137 -4.563330772743073 3.6313206718436932
H 15.589934598731023 -5.09183342445334 3.282450890474935
H 15.223152324594594 -4.151236437993016 4.428000245605942
O -9.068993440323753 6.394193642358172 10.798161453450538
H -10.004260320489204 6.492067587773981 11.03196459837021
H -8.771034153764738 5.643890692386048 11.334097728688903
O -3.493253188682557 6.8069353605713925 7.4209172222583994
H -3.560340891177285 7.19238945547845 8.307422573507539
H -2.827034649383086 6.1100886780962975 7.518485164314862
O -5.879238152817703 -2.9776652215252026 2.5946385842959083
H -4.923472083712128 -2.9952097541732257 2.435985606319943
H -6.025527832501577 -2.1347620845619133 3.0496941585013406
O -4.547417457507907 -12.062012183291248 8.295253524239197
H -4.333293567115269 -12.00157309853842 9.238368275209279
H -3.9316705455890535 -11.44278091444416 7.875288858529781
O 5.311655001491298 4.843147171736666 -1.9369265410649628
H 5.294807255751887 4.921938727613814 -2.902574199937473
H 5.617993695417286 5.71197815882836 -1.6365080583229845
O 0.9020925295966937 -5.850545014348631 1.8855178874791199
H 1.3842667398820374 -5.654250423322149 2.702796188530513
H -0.015106588091120088 -5.616730473199195 2.092975071398532
O -0.26461539359583375 5.981362743200341 8.777116872947206
H -1.0097219024411284 5.36960278607366 8.679477730013948
H -0.04706703047243077 6.232417183085259 7.866838716438767
O -10.926336836687245 1.952431548151396 -5.0445244363987145
H -10.394830565149523 2.593893620130904 -4.549554891448899
H -10.389379797590465 1.75800474647671 -5.827363692731053
O -9.117619346316747 8.120920808845558 7.076446328433819
H -8.987747676671693 7.181648221323561 7.276115336177491
H -8.622657928656581 8.256082630479982 6.254432690286436
O -9.620511831342036 -1.2890774393724285 -6.685198032963395
H -9.518680008484004 -0.9820578376461399 -5.771777756798452
H -10.46813921402296 -1.7586236038471075 -6.681177603060829
O 6.167470613464467 12.153092500558728 -6.325721747955212
H 5.949187932455095 11.456432880187014 -6.962891585137498
H 7.116637636826585 12.037535789487201 -6.16858947059557
O 3.3799143239791167 13.256855075346154 -0.10698191046777583
H 3.1428336675366837 14.021081701218659 0.4395688955405499
H 2.563408261550519 12.736734219767722 -0.14886376703724946
O 2.9943532150473224 4.382501165766524 -11.589488479423254
H 3.5276806756292602 4.491466245040927 -12.391146628628977
H 3.637865826250772 4.120455952381709 -10.914073222219047
C 3.453112179253636 -8.738417408401254 0.38529007421326966
O 3.3263184330525957 -7.592389805168366 0.7067902077320372
O 3.5799059254546766 -9.884445011634146 0.06378994069450261