146

C -5.3564454929577465 1.0091607042253532 -0.0734429577464788
C -4.079135492957747 0.16955070422535368 -0.19788295774647868
C -4.333545492957747 -1.2789292957746463 0.3017270422535212
C -3.1403854929577464 -2.1745492957746464 0.7330270422535212
C -2.905235492957746 0.902300704225353 0.41966704225352136
C -2.7423854929577463 1.056130704225354 1.8024770422535212
C -1.8861754929577463 1.3499307042253532 -0.4326129577464788
C -1.5304554929577463 1.5279207042253526 2.3254170422535214
H -3.5237954929577464 0.7301007042253529 2.484817042253521
C -0.6776454929577462 1.8010507042253527 0.08546704225352131
H -1.9759254929577463 1.2426607042253535 -1.5115229577464788
C -0.4680254929577463 1.8513207042253539 1.4698070422535212
H -1.3950654929577464 1.5446707042253527 3.404047042253521
H 0.1461845070422536 1.9972507042253538 -0.6030529577464789
C -1.8679654929577463 -2.0866092957746467 -0.08765295774647863
C -0.6628654929577462 -1.814079295774647 0.5787970422535212
C -1.8438954929577462 -2.213429295774647 -1.4808029577464787
C 0.5129345070422537 -1.5763292957746469 -0.13022295774647863
H -0.6401854929577462 -1.7032692957746463 1.6609470422535213
C -0.6547954929577462 -1.9962392957746466 -2.1933129577464787
H -2.7578654929577464 -2.4351492957746466 -2.026182957746479
C 0.5308845070422537 -1.645769295774647 -1.5261029577464789
H 1.4044045070422537 -1.2610992957746463 0.41551704225352126
H -0.6795654929577464 -2.0467992957746466 -3.2793129577464786
C 1.7843245070422535 -1.2521692957746469 -2.2771629577464787
H 1.4981245070422535 -0.9384492957746469 -3.290282957746479
H 2.241984507042254 -0.38631929577464685 -1.8135029577464787
C 0.9385645070422537 2.0647807042253534 1.9815670422535212
H 1.0508945070422537 1.5807407042253532 2.9609770422535213
H 1.6053245070422537 1.5496207042253536 1.3096170422535214
C 3.9676945070422533 -1.6881692957746468 -3.314052957746479
H 4.795084507042254 -2.398849295774647 -3.4044129577464783
H 3.548404507042253 -1.4816192957746468 -4.303802957746479
H 4.307714507042253 -0.7637192957746466 -2.851282957746479
C 2.344694507042253 -3.565079295774647 -3.101282957746479
H 1.6334345070422536 -4.047909295774646 -2.4251929577464786
H 1.8561845070422536 -3.293109295774647 -4.041792957746479
H 3.1808045070422537 -4.243519295774647 -3.298122957746479
C 3.5156645070422536 -2.648489295774647 -1.1110629577464786
H 3.9311845070422535 -1.748249295774647 -0.6771029577464787
H 2.767184507042254 -3.1044092957746465 -0.45972295774647876
H 4.319224507042254 -3.371819295774647 -1.2863129577464787
C 2.963994507042253 3.381090704225353 2.401027042253521
H 3.3337945070422537 4.369820704225353 2.6912870422535216
H 3.120994507042253 2.671350704225353 3.2183370422535216
H 3.4665445070422534 3.0664207042253535 1.4881370422535212
C 1.2973745070422538 4.282440704225354 0.8488370422535213
H 1.7592145070422538 3.7367207042253527 0.02653704225352116
H 0.23311450704225378 4.4484607042253534 0.6605570422535213
H 1.7921845070422535 5.251370704225354 0.9736770422535213
C 0.7724845070422537 4.194670704225353 3.2772470422535216
H -0.2956954929577462 4.278220704225354 3.057857042253521
H 0.9298945070422537 3.612620704225354 4.190337042253521
H 1.2046345070422537 5.193640704225353 3.3918370422535213
N 2.876084507042253 -2.324759295774647 -2.4576629577464786
N 1.4527845070422536 3.504690704225353 2.1388470422535213
C -3.593905492957746 -3.637819295774647 0.8297870422535213
H -2.8952554929577463 -1.8680692957746468 1.7595270422535212
H -5.022615492957747 -1.2402792957746467 1.1579970422535213
H -4.898275492957747 -1.7933092957746464 -0.48931295774647876
H -3.883675492957746 0.07871070422535364 -1.2758929577464788
H -3.8751654929577466 -4.038529295774646 -0.1505529577464788
H -4.4603554929577465 -3.7321892957746465 1.4932570422535212
H -2.7953554929577464 -4.271929295774647 1.2313670422535212
H -5.648775492957746 1.147700704225353 0.9733970422535213
H -6.189795492957747 0.5254307042253537 -0.5943629577464788
H -5.2178854929577465 2.002970704225354 -0.5139729577464787
C 3.6710445070422537 1.0263707042253536 -0.27764295774647874
O 2.7356545070422538 1.6631507042253526 -0.7327029577464788
O 3.650814507042253 0.3883007042253537 0.7790570422535212
O 4.756604507042254 0.8696707042253538 -0.8334829577464786
O -3.652680923841796 -2.1973956046380234 -8.78576200082369
H -2.7935682037192517 -1.9611001218207196 -9.166625671739913
H -3.9256045356753964 -1.3984422803072114 -8.310211549299936
O 5.642485426990586 2.50688369235759 10.269098066345368
H 4.970997790763548 2.71885550138893 10.934785428002632
H 5.461359613652952 1.5829693802679627 10.039886967227703
O 6.961906249942459 1.98521202093605 -1.9167840248558858
H 7.653864421979469 2.654362439181071 -1.8054333948005743
H 7.121947383719625 1.628300738401526 -2.8033296334958924
O -2.5080189572409486 -7.872558079336205 -4.439263201287664
H -2.652053962974283 -6.9348049773464995 -4.242183537871862
H -2.736933593137472 -8.323310444564799 -3.6125937758138593
O -9.213864991998964 -4.823332120371623 3.4603917288248693
H -8.885283336123388 -5.639917310517661 3.8655954794938645
H -10.028380773219416 -4.630985768907448 3.9487859011091593
O -8.337147195080126 -9.607374544936418 7.330752590976571
H -8.575914471220692 -9.633003235783509 8.26952877034516
H -7.679042844603437 -8.898254190180866 7.275898870455403
O 7.178824255479173 7.854335233923515 -3.6800688053965303
H 6.687009943561222 8.021207797543106 -2.8619981562446983
H 6.505559013650347 7.5269500196431025 -4.295288099563855
O 7.285722913387435 6.5896197311747535 9.81599163125089
H 7.230263104143916 7.228299735387042 10.54261355404022
H 8.019595003792283 6.009844890675204 10.069477002719418
O 3.9489143421940947 4.797374398258284 -1.3282039664430954
H 4.369420408501551 5.6617906336200345 -1.206029594573834
H 3.1422266717515086 4.851935329007534 -0.7941252723429756
O 3.647878016132349 -1.9503388821500023 10.995505531388604
H 4.375128944946293 -2.016761493468974 11.632421130306412
H 3.075870289946053 -1.260676513832353 11.364470195292444
O 8.586458567764437 2.8616098857719763 12.574655214897254
H 9.515938314404668 2.848365141106796 12.848259553723173
H 8.382374050844568 1.931729734803639 12.394005390406098
O 5.545730608109292 4.821816056292985 -7.156022542044196
H 5.000925063657519 5.621192857598969 -7.099888727204816
H 5.109888613935314 4.1988608979164255 -6.555247566644516
O -10.013145968305539 -0.9652978994893457 1.3126051233393086
H -10.48999574976629 -1.3238242796602444 2.0761759959781143
H -10.70436143643655 -0.831216108768511 0.6468685430663594
O -0.1862677937439301 -9.383364672741646 -2.2958651963033088
H -1.0237027643643497 -8.92582959751127 -2.127545019806515
H -0.44197789005742294 -10.313558603562168 -2.387043823228751
O -4.027667745546272 5.65562523629983 2.2436925162830645
H -4.24229256766179 6.528255778752137 2.606210762735949
H -3.112743989531936 5.504052218721806 2.5245876663353766
O 5.0074598048731245 -1.1372341667047678 -9.786667724116786
H 5.503539022373587 -1.7830549649402672 -10.311823190079574
H 5.023637605635737 -1.5031239121623827 -8.889547376988574
O 8.315055986215686 -2.052296463982698 7.78310846098789
H 8.711174559506773 -1.4043850474172452 7.1812212380981
H 8.89159792469778 -2.8272101694892746 7.7051977012086725
O -3.326804046580669 -11.573821935725107 -1.9961647010343713
H -2.504731587818313 -11.585562851985625 -2.509025676669853
H -3.5067942378152224 -10.63089794502478 -1.8640290770674892
O 5.963460839449341 -6.761906270310844 0.6839812130770869
H 5.842566776396707 -6.947903643367624 1.6272505063516025
H 6.9249801328790435 -6.70541198815569 0.5779105350071297
O 9.365709975104487 3.3829623029759928 6.490612760017375
H 10.08799909740761 4.0160969727452125 6.362525794877263
H 9.675122812760053 2.818247439814373 7.214714108944639
O -6.8255230258572634 -8.30568996547565 -0.6481957705648992
H -6.090260804700513 -8.89255706848298 -0.4159376674825149
H -6.552200212731582 -7.909655532657777 -1.4892744304699579
O 9.065443780056789 -2.1106139988165595 -3.224338404864512
H 9.473518579086228 -2.456649598167787 -4.032237952629408
H 9.819498416299455 -1.8507866570116613 -2.674017314671216
O 3.942622836190439 7.142727073284547 6.8867888342321795
H 3.736916183223417 7.121291210331054 5.940114321210652
H 4.186590140305853 8.065763845185842 7.052454209433795
O 2.6509139767826517 1.568605548140097 6.028382602861908
H 2.256133466335981 0.753989364609244 6.374093723598709
H 1.9002235468458413 2.049905616392546 5.649204456074051
C 8.213396190508854 0.8602804472448451 -4.9843627718390815
O 8.959419113157733 1.1147492164486756 -4.083522218976192
O 7.467373267859976 0.6058116780410145 -5.885203324701971