146

C -5.3564454929577465 1.0091607042253532 -0.0734429577464788
C -4.079135492957747 0.16955070422535368 -0.19788295774647868
C -4.333545492957747 -1.2789292957746463 0.3017270422535212
C -3.1403854929577464 -2.1745492957746464 0.7330270422535212
C -2.905235492957746 0.902300704225353 0.41966704225352136
C -2.7423854929577463 1.056130704225354 1.8024770422535212
C -1.8861754929577463 1.3499307042253532 -0.4326129577464788
C -1.5304554929577463 1.5279207042253526 2.3254170422535214
H -3.5237954929577464 0.7301007042253529 2.484817042253521
C -0.6776454929577462 1.8010507042253527 0.08546704225352131
H -1.9759254929577463 1.2426607042253535 -1.5115229577464788
C -0.4680254929577463 1.8513207042253539 1.4698070422535212
H -1.3950654929577464 1.5446707042253527 3.404047042253521
H 0.1461845070422536 1.9972507042253538 -0.6030529577464789
C -1.8679654929577463 -2.0866092957746467 -0.08765295774647863
C -0.6628654929577462 -1.814079295774647 0.5787970422535212
C -1.8438954929577462 -2.213429295774647 -1.4808029577464787
C 0.5129345070422537 -1.5763292957746469 -0.13022295774647863
H -0.6401854929577462 -1.7032692957746463 1.6609470422535213
C -0.6547954929577462 -1.9962392957746466 -2.1933129577464787
H -2.7578654929577464 -2.4351492957746466 -2.026182957746479
C 0.5308845070422537 -1.645769295774647 -1.5261029577464789
H 1.4044045070422537 -1.2610992957746463 0.41551704225352126
H -0.6795654929577464 -2.0467992957746466 -3.2793129577464786
C 1.7843245070422535 -1.2521692957746469 -2.2771629577464787
H 1.4981245070422535 -0.9384492957746469 -3.290282957746479
H 2.241984507042254 -0.38631929577464685 -1.8135029577464787
C 0.9385645070422537 2.0647807042253534 1.9815670422535212
H 1.0508945070422537 1.5807407042253532 2.9609770422535213
H 1.6053245070422537 1.5496207042253536 1.3096170422535214
C 3.9676945070422533 -1.6881692957746468 -3.314052957746479
H 4.795084507042254 -2.398849295774647 -3.4044129577464783
H 3.548404507042253 -1.4816192957746468 -4.303802957746479
H 4.307714507042253 -0.7637192957746466 -2.851282957746479
C 2.344694507042253 -3.565079295774647 -3.101282957746479
H 1.6334345070422536 -4.047909295774646 -2.4251929577464786
H 1.8561845070422536 -3.293109295774647 -4.041792957746479
H 3.1808045070422537 -4.243519295774647 -3.298122957746479
C 3.5156645070422536 -2.648489295774647 -1.1110629577464786
H 3.9311845070422535 -1.748249295774647 -0.6771029577464787
H 2.767184507042254 -3.1044092957746465 -0.45972295774647876
H 4.319224507042254 -3.371819295774647 -1.2863129577464787
C 2.963994507042253 3.381090704225353 2.401027042253521
H 3.3337945070422537 4.369820704225353 2.6912870422535216
H 3.120994507042253 2.671350704225353 3.2183370422535216
H 3.4665445070422534 3.0664207042253535 1.4881370422535212
C 1.2973745070422538 4.282440704225354 0.8488370422535213
H 1.7592145070422538 3.7367207042253527 0.02653704225352116
H 0.23311450704225378 4.4484607042253534 0.6605570422535213
H 1.7921845070422535 5.251370704225354 0.9736770422535213
C 0.7724845070422537 4.194670704225353 3.2772470422535216
H -0.2956954929577462 4.278220704225354 3.057857042253521
H 0.9298945070422537 3.612620704225354 4.190337042253521
H 1.2046345070422537 5.193640704225353 3.3918370422535213
N 2.876084507042253 -2.324759295774647 -2.4576629577464786
N 1.4527845070422536 3.504690704225353 2.1388470422535213
C -3.593905492957746 -3.637819295774647 0.8297870422535213
H -2.8952554929577463 -1.8680692957746468 1.7595270422535212
H -5.022615492957747 -1.2402792957746467 1.1579970422535213
H -4.898275492957747 -1.7933092957746464 -0.48931295774647876
H -3.883675492957746 0.07871070422535364 -1.2758929577464788
H -3.8751654929577466 -4.038529295774646 -0.1505529577464788
H -4.4603554929577465 -3.7321892957746465 1.4932570422535212
H -2.7953554929577464 -4.271929295774647 1.2313670422535212
H -5.648775492957746 1.147700704225353 0.9733970422535213
H -6.189795492957747 0.5254307042253537 -0.5943629577464788
H -5.2178854929577465 2.002970704225354 -0.5139729577464787
C 3.6710445070422537 1.0263707042253536 -0.27764295774647874
O 2.7356545070422538 1.6631507042253526 -0.7327029577464788
O 3.650814507042253 0.3883007042253537 0.7790570422535212
O 4.756604507042254 0.8696707042253538 -0.8334829577464786
O 7.8610767273753295 5.845589662007526 -8.973327086009077
H 8.805126913133417 5.947352488863384 -8.779985598633944
H 7.795311422707122 6.03000466334279 -9.922341298908131
O 8.821027532378626 0.7105295298557377 4.325689957620119
H 9.758972387429985 0.9224023345098389 4.205953912793638
H 8.619835385342698 1.0342049496115777 5.216598419201303
O -1.5920825857255811 -0.9328631569149017 -6.72172267872602
H -2.1038772704294777 -0.2423287749251805 -6.274290197899119
H -1.1117265797094242 -0.45599422373157666 -7.41513170112824
O 9.794475046955279 10.216777741288894 5.88796107441202
H 9.37306639848524 11.008722259890524 6.2543024280038395
H 9.129910939323892 9.85745985454166 5.2811603267101095
O 5.560811006677506 -3.7508496030725116 -4.683340332270587
H 5.26108159525802 -4.6383489464302645 -4.931280954939981
H 5.988864422117604 -3.8800284536510983 -3.823663042589593
O 2.54879083505188 -7.692806160035377 -10.721828171285777
H 2.2862947340513013 -7.955101321914772 -11.61696190538039
H 3.359492281755885 -8.19774348649667 -10.558232923927683
O 0.8228312693427782 10.859191713679065 -2.9332090943324425
H 0.24383171786640823 11.291132957129875 -3.579083415308536
H 1.6869388767096432 11.272223696212851 -3.080465906042189
O 6.622416979863072 -7.285837803825563 -8.021130155860604
H 6.857475440169933 -7.342330775979352 -8.959492250808712
H 5.668517750614708 -7.455748756711589 -8.008150447515007
O 0.2770773149281922 -10.707477616066363 4.84626651808761
H 0.393845949390375 -10.305907641300056 5.7203797820711895
H 1.1817676461433928 -10.881353274326376 4.545825834473726
O -1.314937098542219 -0.5833401698895777 7.8008382203847
H -1.9986378902648667 -0.36507287416210904 8.451898871870906
H -1.302113393922219 -1.5522033398402173 7.790755819231393
O 9.922810607852815 1.631689168312315 -9.59706011665406
H 9.167276354992197 1.9221392319333344 -10.12976464094205
H 10.054663134889537 0.7088360931600581 -9.861482235804583
O -5.251576409901711 0.12323048108955503 -4.767911840972169
H -4.693132668612837 0.5585618929623475 -4.106402576825302
H -5.157581975018811 -0.8204804344028507 -4.569073468187819
O 9.15276297903013 0.8635542536002094 0.4102911130363962
H 9.704550550304328 0.6822423173625842 -0.36535301597193093
H 8.63562918520244 0.05207964247044533 0.524499427414893
O 6.095151381004662 1.0982581939198601 6.34088552596756
H 6.357969334447044 1.6806546396413387 5.612388127029617
H 5.159052587007745 0.9162378069069863 6.1689856397279295
O -5.184312382301777 2.4786429967727845 7.927406895550575
H -4.996028349013753 1.673355510376012 7.422403386689932
H -5.70871343523896 3.0197390950451926 7.318161056489896
O -0.7158481266613679 5.678228274480434 -2.6834100424121288
H -0.3396204825879079 5.989405624048446 -1.8463982301593014
H -0.6836892091918556 6.457441832186532 -3.2585221878361255
O 0.7672031307414673 -5.193696323842408 -0.9132931576065868
H 1.5763736950008393 -5.178294200514526 -0.38040186528406883
H 1.0735611651304162 -5.447901456133215 -1.796744599272937
O -11.558799607566904 4.061599124763688 1.687971994456388
H -11.12151767239703 3.795086276856712 0.865340383117142
H -12.40674875803416 3.5931954189108835 1.6646878611202296
O -12.37750491649505 -0.2260534088356596 -1.061833646038988
H -11.739218349300945 -0.9443461100213701 -0.9368808130863173
H -12.375870445447802 -0.07536261412308876 -2.0190439453950333
O -8.22901003397667 -6.054920015232724 4.395767722348971
H -8.247034617763688 -6.2305372063829525 5.348553675987987
H -7.287503488928122 -6.089382094366191 4.169184989042687
O -0.2285746563919528 1.0082836775537922 -7.937866558870372
H 0.4504173573548123 0.3897261185458224 -8.246612001528584
H 0.24016162992071638 1.5741971170575981 -7.306209834705435
O 9.133400716159667 3.0843432653846454 -12.058488234840446
H 9.155516056602291 3.0531750605690986 -13.02673758889429
H 9.835091088127102 2.473015450909239 -11.78854218571781
O -1.0991657759470534 -10.209825144043844 1.6175568788858041
H -1.5842460756539474 -9.648964631061075 0.9937781162519852
H -0.21369788956099045 -9.81723820141217 1.6455579316180333
O -9.46732628341441 4.988450064153396 0.10073532841591248
H -9.73954984092173 5.8132267666250375 0.5303922644684591
H -9.664127581349938 4.305432228965945 0.7593078986363397
C -10.55867986236164 -7.133712667030836 -1.7576856270496894
O -9.803243066311595 -6.262443509347579 -2.078658459768521
O -11.314116658411685 -8.004981824714093 -1.436712794330858