146

C -5.3564454929577465 1.0091607042253532 -0.0734429577464788
C -4.079135492957747 0.16955070422535368 -0.19788295774647868
C -4.333545492957747 -1.2789292957746463 0.3017270422535212
C -3.1403854929577464 -2.1745492957746464 0.7330270422535212
C -2.905235492957746 0.902300704225353 0.41966704225352136
C -2.7423854929577463 1.056130704225354 1.8024770422535212
C -1.8861754929577463 1.3499307042253532 -0.4326129577464788
C -1.5304554929577463 1.5279207042253526 2.3254170422535214
H -3.5237954929577464 0.7301007042253529 2.484817042253521
C -0.6776454929577462 1.8010507042253527 0.08546704225352131
H -1.9759254929577463 1.2426607042253535 -1.5115229577464788
C -0.4680254929577463 1.8513207042253539 1.4698070422535212
H -1.3950654929577464 1.5446707042253527 3.404047042253521
H 0.1461845070422536 1.9972507042253538 -0.6030529577464789
C -1.8679654929577463 -2.0866092957746467 -0.08765295774647863
C -0.6628654929577462 -1.814079295774647 0.5787970422535212
C -1.8438954929577462 -2.213429295774647 -1.4808029577464787
C 0.5129345070422537 -1.5763292957746469 -0.13022295774647863
H -0.6401854929577462 -1.7032692957746463 1.6609470422535213
C -0.6547954929577462 -1.9962392957746466 -2.1933129577464787
H -2.7578654929577464 -2.4351492957746466 -2.026182957746479
C 0.5308845070422537 -1.645769295774647 -1.5261029577464789
H 1.4044045070422537 -1.2610992957746463 0.41551704225352126
H -0.6795654929577464 -2.0467992957746466 -3.2793129577464786
C 1.7843245070422535 -1.2521692957746469 -2.2771629577464787
H 1.4981245070422535 -0.9384492957746469 -3.290282957746479
H 2.241984507042254 -0.38631929577464685 -1.8135029577464787
C 0.9385645070422537 2.0647807042253534 1.9815670422535212
H 1.0508945070422537 1.5807407042253532 2.9609770422535213
H 1.6053245070422537 1.5496207042253536 1.3096170422535214
C 3.9676945070422533 -1.6881692957746468 -3.314052957746479
H 4.795084507042254 -2.398849295774647 -3.4044129577464783
H 3.548404507042253 -1.4816192957746468 -4.303802957746479
H 4.307714507042253 -0.7637192957746466 -2.851282957746479
C 2.344694507042253 -3.565079295774647 -3.101282957746479
H 1.6334345070422536 -4.047909295774646 -2.4251929577464786
H 1.8561845070422536 -3.293109295774647 -4.041792957746479
H 3.1808045070422537 -4.243519295774647 -3.298122957746479
C 3.5156645070422536 -2.648489295774647 -1.1110629577464786
H 3.9311845070422535 -1.748249295774647 -0.6771029577464787
H 2.767184507042254 -3.1044092957746465 -0.45972295774647876
H 4.319224507042254 -3.371819295774647 -1.2863129577464787
C 2.963994507042253 3.381090704225353 2.401027042253521
H 3.3337945070422537 4.369820704225353 2.6912870422535216
H 3.120994507042253 2.671350704225353 3.2183370422535216
H 3.4665445070422534 3.0664207042253535 1.4881370422535212
C 1.2973745070422538 4.282440704225354 0.8488370422535213
H 1.7592145070422538 3.7367207042253527 0.02653704225352116
H 0.23311450704225378 4.4484607042253534 0.6605570422535213
H 1.7921845070422535 5.251370704225354 0.9736770422535213
C 0.7724845070422537 4.194670704225353 3.2772470422535216
H -0.2956954929577462 4.278220704225354 3.057857042253521
H 0.9298945070422537 3.612620704225354 4.190337042253521
H 1.2046345070422537 5.193640704225353 3.3918370422535213
N 2.876084507042253 -2.324759295774647 -2.4576629577464786
N 1.4527845070422536 3.504690704225353 2.1388470422535213
C -3.593905492957746 -3.637819295774647 0.8297870422535213
H -2.8952554929577463 -1.8680692957746468 1.7595270422535212
H -5.022615492957747 -1.2402792957746467 1.1579970422535213
H -4.898275492957747 -1.7933092957746464 -0.48931295774647876
H -3.883675492957746 0.07871070422535364 -1.2758929577464788
H -3.8751654929577466 -4.038529295774646 -0.1505529577464788
H -4.4603554929577465 -3.7321892957746465 1.4932570422535212
H -2.7953554929577464 -4.271929295774647 1.2313670422535212
H -5.648775492957746 1.147700704225353 0.9733970422535213
H -6.189795492957747 0.5254307042253537 -0.5943629577464788
H -5.2178854929577465 2.002970704225354 -0.5139729577464787
C 3.6710445070422537 1.0263707042253536 -0.27764295774647874
O 2.7356545070422538 1.6631507042253526 -0.7327029577464788
O 3.650814507042253 0.3883007042253537 0.7790570422535212
O 4.756604507042254 0.8696707042253538 -0.8334829577464786
O -0.8814433601877942 2.897982371441494 -3.7088024297581232
H -0.7370825724833654 3.6496248760574463 -3.1145290371785666
H -1.6850923014049535 2.4792539598079815 -3.3656161234004633
O 2.572547523060682 4.340226245556679 7.323293888286818
H 3.2377300501276856 4.667181919781071 6.699114787645639
H 2.046789998704716 3.7168925164982722 6.799847585308925
O 8.593465740233622 -4.854831116501446 -2.5442806998350553
H 8.045873224059743 -5.553788134294973 -2.156248638778833
H 8.00893368201439 -4.431271710830998 -3.1907183589191206
O 0.14241542047426137 11.429466038359083 1.9717108098033371
H -0.2594550739971373 11.07881857980395 2.780731095322892
H 0.41173500503988514 12.328036598336436 2.214609666143559
O -2.78560114106115 -1.931306187932858 8.312844305764001
H -3.1869454959877133 -2.0502191818412334 9.186772086274685
H -3.134487660846399 -1.079903253412107 8.008947639606589
O -0.27871329638695785 -8.745412364042478 -3.718327422274264
H 0.6020000954970057 -8.343350454027624 -3.7590398131577767
H -0.3349335189088678 -9.268745081785823 -4.531914601019695
O -5.331330245993049 -10.431131688749508 -0.09838571486963599
H -5.213024393161713 -9.736353495170858 -0.7634077775212732
H -4.574529857791039 -11.019985247166716 -0.23790848525740393
O -10.973867900063922 0.5320635134365421 -5.849017778540789
H -11.532826613819722 1.3131511727147132 -5.720820345883924
H -11.303787079760337 -0.10181404411941841 -5.194560353496703
O -12.07994860991799 1.1923496162538667 10.351157069324602
H -12.418281537642393 0.6630223488804345 11.088931310493546
H -11.165522354084938 0.8895412686765898 10.245830569427069
O 5.570462059001828 -5.29280625554428 10.995644017621796
H 5.379838237647561 -5.5425692361734065 11.912294643072709
H 4.8090593140394775 -5.627753892998497 10.498614959690936
O -1.9961967705927628 -5.3176424681792405 0.07625449000014117
H -2.29965553685517 -4.986786594920774 -0.7824739450763246
H -1.0791540978977217 -5.010122272057884 0.13478661565620156
O 14.156761577792558 4.748139907828206 4.117437828372905
H 14.310260426362248 5.084270004254961 5.013217945736491
H 13.962816146236253 3.808079225382587 4.250227237582813
O -6.008163865539714 2.6008101193823796 4.700686438972377
H -6.123410360000511 1.7077581444619812 4.342714690778086
H -5.151423562641307 2.8853585451045425 4.348564029704546
O -11.154097356173953 -2.40943257275139 0.8634026507813486
H -11.375343322962774 -2.4283760231091343 1.8066198711331747
H -10.186216038236697 -2.4537357580199424 0.8490873979682991
O -5.144498731118797 -1.5889620441819572 -7.742766641103853
H -4.3935140401165675 -2.1756541598927024 -7.918213818747542
H -5.750399873387075 -1.7575049578450765 -8.479949818036113
O 10.209163339110795 2.122430151243222 -5.066771365455203
H 10.361951296809801 3.075925376569644 -5.147207999906696
H 10.06707183413976 1.8303193935975577 -5.979702498554923
O 3.5599809318592026 6.911959432842607 -1.4610374939681467
H 2.997149958407263 7.009788841443468 -2.2437367076102386
H 4.171906200138716 6.199741060578028 -1.7003164118648888
O -0.3420158629194046 6.069276535863681 -3.952528059119808
H -1.2529113078338119 5.936018515425225 -3.65007286355688
H -0.3175321995849108 7.000812401482801 -4.2182411103516975
O -8.639938631235486 -3.1466846029733757 -6.729053299157613
H -9.09587413262581 -3.7604265489236104 -6.1337290184053685
H -7.99592098932941 -3.7039412605713107 -7.191295918110599
O 0.9988617303296472 -1.6905657675586934 8.212442981991806
H 0.7002858610077394 -2.183921273343638 8.991172814520617
H 1.8553469226699106 -1.325434209113122 8.480909003359447
O 3.2647429859691153 -6.365528550688717 -1.277031122209436
H 2.9267991342630424 -5.924509988929067 -2.0709227635418763
H 2.628324539229066 -7.078368123377847 -1.116428355865391
O 7.351235733158657 -7.000935715371636 5.8776429651545214
H 7.589656918657617 -6.314041779907219 5.237096778976291
H 7.408549619846211 -6.552008578697574 6.734463534848314
O -6.657055512120778 -1.3575309910262472 2.6041302478697412
H -7.610774439543527 -1.381566887367802 2.4343956312982775
H -6.574071968358096 -1.6685119094466876 3.5181141340203483
O -1.32192227115525 -4.618078859198452 -7.269913830819691
H -1.8162813093937613 -5.022839926370348 -7.998436292184996
H -0.4924787837709286 -4.331356499256362 -7.680737069993149
C 10.444319675719418 2.414935173531607 3.2701791453382616
O 9.391014581043596 1.9999161940647696 3.6589282694688037
O 11.497624770395241 2.829954152998445 2.88143002120772