146

C -5.3564454929577465 1.0091607042253532 -0.0734429577464788
C -4.079135492957747 0.16955070422535368 -0.19788295774647868
C -4.333545492957747 -1.2789292957746463 0.3017270422535212
C -3.1403854929577464 -2.1745492957746464 0.7330270422535212
C -2.905235492957746 0.902300704225353 0.41966704225352136
C -2.7423854929577463 1.056130704225354 1.8024770422535212
C -1.8861754929577463 1.3499307042253532 -0.4326129577464788
C -1.5304554929577463 1.5279207042253526 2.3254170422535214
H -3.5237954929577464 0.7301007042253529 2.484817042253521
C -0.6776454929577462 1.8010507042253527 0.08546704225352131
H -1.9759254929577463 1.2426607042253535 -1.5115229577464788
C -0.4680254929577463 1.8513207042253539 1.4698070422535212
H -1.3950654929577464 1.5446707042253527 3.404047042253521
H 0.1461845070422536 1.9972507042253538 -0.6030529577464789
C -1.8679654929577463 -2.0866092957746467 -0.08765295774647863
C -0.6628654929577462 -1.814079295774647 0.5787970422535212
C -1.8438954929577462 -2.213429295774647 -1.4808029577464787
C 0.5129345070422537 -1.5763292957746469 -0.13022295774647863
H -0.6401854929577462 -1.7032692957746463 1.6609470422535213
C -0.6547954929577462 -1.9962392957746466 -2.1933129577464787
H -2.7578654929577464 -2.4351492957746466 -2.026182957746479
C 0.5308845070422537 -1.645769295774647 -1.5261029577464789
H 1.4044045070422537 -1.2610992957746463 0.41551704225352126
H -0.6795654929577464 -2.0467992957746466 -3.2793129577464786
C 1.7843245070422535 -1.2521692957746469 -2.2771629577464787
H 1.4981245070422535 -0.9384492957746469 -3.290282957746479
H 2.241984507042254 -0.38631929577464685 -1.8135029577464787
C 0.9385645070422537 2.0647807042253534 1.9815670422535212
H 1.0508945070422537 1.5807407042253532 2.9609770422535213
H 1.6053245070422537 1.5496207042253536 1.3096170422535214
C 3.9676945070422533 -1.6881692957746468 -3.314052957746479
H 4.795084507042254 -2.398849295774647 -3.4044129577464783
H 3.548404507042253 -1.4816192957746468 -4.303802957746479
H 4.307714507042253 -0.7637192957746466 -2.851282957746479
C 2.344694507042253 -3.565079295774647 -3.101282957746479
H 1.6334345070422536 -4.047909295774646 -2.4251929577464786
H 1.8561845070422536 -3.293109295774647 -4.041792957746479
H 3.1808045070422537 -4.243519295774647 -3.298122957746479
C 3.5156645070422536 -2.648489295774647 -1.1110629577464786
H 3.9311845070422535 -1.748249295774647 -0.6771029577464787
H 2.767184507042254 -3.1044092957746465 -0.45972295774647876
H 4.319224507042254 -3.371819295774647 -1.2863129577464787
C 2.963994507042253 3.381090704225353 2.401027042253521
H 3.3337945070422537 4.369820704225353 2.6912870422535216
H 3.120994507042253 2.671350704225353 3.2183370422535216
H 3.4665445070422534 3.0664207042253535 1.4881370422535212
C 1.2973745070422538 4.282440704225354 0.8488370422535213
H 1.7592145070422538 3.7367207042253527 0.02653704225352116
H 0.23311450704225378 4.4484607042253534 0.6605570422535213
H 1.7921845070422535 5.251370704225354 0.9736770422535213
C 0.7724845070422537 4.194670704225353 3.2772470422535216
H -0.2956954929577462 4.278220704225354 3.057857042253521
H 0.9298945070422537 3.612620704225354 4.190337042253521
H 1.2046345070422537 5.193640704225353 3.3918370422535213
N 2.876084507042253 -2.324759295774647 -2.4576629577464786
N 1.4527845070422536 3.504690704225353 2.1388470422535213
C -3.593905492957746 -3.637819295774647 0.8297870422535213
H -2.8952554929577463 -1.8680692957746468 1.7595270422535212
H -5.022615492957747 -1.2402792957746467 1.1579970422535213
H -4.898275492957747 -1.7933092957746464 -0.48931295774647876
H -3.883675492957746 0.07871070422535364 -1.2758929577464788
H -3.8751654929577466 -4.038529295774646 -0.1505529577464788
H -4.4603554929577465 -3.7321892957746465 1.4932570422535212
H -2.7953554929577464 -4.271929295774647 1.2313670422535212
H -5.648775492957746 1.147700704225353 0.9733970422535213
H -6.189795492957747 0.5254307042253537 -0.5943629577464788
H -5.2178854929577465 2.002970704225354 -0.5139729577464787
C 3.6710445070422537 1.0263707042253536 -0.27764295774647874
O 2.7356545070422538 1.6631507042253526 -0.7327029577464788
O 3.650814507042253 0.3883007042253537 0.7790570422535212
O 4.756604507042254 0.8696707042253538 -0.8334829577464786
O -3.7161773944897325 -6.177042961103516 -2.9389872458351176
H -4.659789809768958 -6.143571895821864 -2.7211738981729052
H -3.552138480570045 -5.3397231023445 -3.3982786926832276
O -1.7671978820153091 11.669257158697862 -0.9613800040906177
H -2.7014664991789847 11.660931227698178 -1.218362857129617
H -1.2947588324627577 11.503521806704578 -1.7910155155397982
O -7.788462426593542 -0.15766092009354915 4.543623977376651
H -6.858511543431941 -0.3014291808581886 4.774901730313829
H -7.749734643518911 0.2858626613084256 3.682956250632764
O 3.635807974388993 9.923293996325999 5.386691039849325
H 4.039718764017474 9.750149428431333 4.523068211567056
H 2.8599785460145775 10.46499346975641 5.177855403873464
O 6.648689362397857 -2.3020855140774734 -7.374668462113065
H 5.86013246612894 -2.01970651198781 -7.861913243948212
H 6.791884088893564 -1.5929799156627666 -6.729977478074402
O 0.6252212697833701 -5.079573646628971 4.414079494830329
H 1.0027108197427328 -4.3387914492670285 4.911784962595242
H 0.1486155009928461 -4.653586897600505 3.6858321638309284
O -9.076042653041604 -1.6923781771574693 0.892857554186619
H -8.596908388450814 -1.6647619649595793 0.05105291044860438
H -8.531512552959182 -2.2652812795405346 1.4534206190455938
O -1.7548116594178549 -1.6791896381671108 5.054240240654327
H -1.2369604111063592 -1.2675934788428243 5.76232642407533
H -2.6464630063522385 -1.3203962871891235 5.17747640054291
O -3.660950065517263 -2.7921221540844052 -3.9495322372984636
H -3.7741020127682323 -1.970089676418472 -3.4491058197346796
H -4.33595345467082 -3.383478435674771 -3.58397770353527
O -2.141902071583464 4.740867841898527 -13.349483775488913
H -1.2166894208764059 4.477370566133368 -13.465751111985277
H -2.2735901646142107 4.715758683570072 -12.389801681969416
O 0.7112677561113139 3.7983055038606097 10.67471106004684
H 1.012196309972206 4.584334307295598 11.154886114107079
H 0.7802661678010607 4.052936422087441 9.742314009983268
O -4.522990456869575 -5.413102868953094 7.374756198713989
H -4.1141099185052346 -6.290135827961191 7.425719431150602
H -4.987650701609688 -5.322002144737869 8.220187129840548
O -8.979512099945389 9.655096501885723 -2.499250020885893
H -9.102523153460561 8.701374274097953 -2.6186214992072334
H -9.30232479684754 9.822112256820997 -1.6009963570346608
O -1.6830572858297566 -6.0458184133741195 0.7555145388367386
H -1.4760837184510285 -6.09776179097676 -0.18970034933935975
H -1.7659510940994259 -6.971955265423331 1.0282068418577932
O -0.217211080519205 0.340700069957907 6.015063688745194
H -0.05308388912702089 1.0587063737112135 6.644743424576218
H 0.005715195103376258 -0.46124256359231763 6.511202613272964
O 7.599986296107267 2.1752275239567815 -12.27885830326078
H 7.423881901261437 1.8287182991036643 -13.16648770571863
H 8.348695896120683 1.6460093408107568 -11.965291733334439
O 4.179285128894767 0.7619387859525444 7.94511108389036
H 4.204512539740159 0.7201699264279444 8.912884971229781
H 4.717179736977187 0.0065045484570583345 7.664129860824701
O -6.822820623138798 -10.084114782794181 6.256777449299145
H -7.653377116758752 -10.401591335157972 6.64194222767968
H -6.876979985797691 -9.120683882764741 6.345262524904265
O 8.905833566318087 -5.555573295730816 -4.209544895238077
H 9.774680251773761 -5.897878715144442 -3.9508949505004995
H 9.017924077522101 -4.593287992956419 -4.1894287906845
O 3.3387974361877193 7.523792750500922 -6.322414691723992
H 3.484206355380792 7.603741703984614 -5.367725334940349
H 4.090798792670544 6.995915490247874 -6.63031321763103
O 9.260579191922922 5.652283720296673 -0.24379550756805424
H 8.957461947279599 6.514022381916126 -0.5670504719075864
H 9.932055366947575 5.383401674769486 -0.8886087644629312
O 1.2951686719375992 -10.530176977333822 1.9419612474234527
H 2.0957783838539448 -10.977574609544371 1.6291884788235937
H 0.5989743943811372 -11.196030888717807 1.8374909602970049
O -12.267707055304264 6.573104039061188 -6.14281831604926
H -12.495769738923654 6.121344041462578 -6.969176394493481
H -11.793810965047836 7.366903342373627 -6.433106286865069
O -1.156037056849597 -7.697308209997371 7.123130415136435
H -1.1956752422205834 -8.640958074693645 7.339743212586631
H -1.863523498577522 -7.304830592245958 7.656409140228045
C -3.7119534778293204 -8.680867220656703 1.3866769054790757
O -3.7775766390006273 -8.721420446212893 0.19216139954586525
O -3.6463303166580134 -8.640313995100515 2.581192411412286