146

C -5.3564454929577465 1.0091607042253532 -0.0734429577464788
C -4.079135492957747 0.16955070422535368 -0.19788295774647868
C -4.333545492957747 -1.2789292957746463 0.3017270422535212
C -3.1403854929577464 -2.1745492957746464 0.7330270422535212
C -2.905235492957746 0.902300704225353 0.41966704225352136
C -2.7423854929577463 1.056130704225354 1.8024770422535212
C -1.8861754929577463 1.3499307042253532 -0.4326129577464788
C -1.5304554929577463 1.5279207042253526 2.3254170422535214
H -3.5237954929577464 0.7301007042253529 2.484817042253521
C -0.6776454929577462 1.8010507042253527 0.08546704225352131
H -1.9759254929577463 1.2426607042253535 -1.5115229577464788
C -0.4680254929577463 1.8513207042253539 1.4698070422535212
H -1.3950654929577464 1.5446707042253527 3.404047042253521
H 0.1461845070422536 1.9972507042253538 -0.6030529577464789
C -1.8679654929577463 -2.0866092957746467 -0.08765295774647863
C -0.6628654929577462 -1.814079295774647 0.5787970422535212
C -1.8438954929577462 -2.213429295774647 -1.4808029577464787
C 0.5129345070422537 -1.5763292957746469 -0.13022295774647863
H -0.6401854929577462 -1.7032692957746463 1.6609470422535213
C -0.6547954929577462 -1.9962392957746466 -2.1933129577464787
H -2.7578654929577464 -2.4351492957746466 -2.026182957746479
C 0.5308845070422537 -1.645769295774647 -1.5261029577464789
H 1.4044045070422537 -1.2610992957746463 0.41551704225352126
H -0.6795654929577464 -2.0467992957746466 -3.2793129577464786
C 1.7843245070422535 -1.2521692957746469 -2.2771629577464787
H 1.4981245070422535 -0.9384492957746469 -3.290282957746479
H 2.241984507042254 -0.38631929577464685 -1.8135029577464787
C 0.9385645070422537 2.0647807042253534 1.9815670422535212
H 1.0508945070422537 1.5807407042253532 2.9609770422535213
H 1.6053245070422537 1.5496207042253536 1.3096170422535214
C 3.9676945070422533 -1.6881692957746468 -3.314052957746479
H 4.795084507042254 -2.398849295774647 -3.4044129577464783
H 3.548404507042253 -1.4816192957746468 -4.303802957746479
H 4.307714507042253 -0.7637192957746466 -2.851282957746479
C 2.344694507042253 -3.565079295774647 -3.101282957746479
H 1.6334345070422536 -4.047909295774646 -2.4251929577464786
H 1.8561845070422536 -3.293109295774647 -4.041792957746479
H 3.1808045070422537 -4.243519295774647 -3.298122957746479
C 3.5156645070422536 -2.648489295774647 -1.1110629577464786
H 3.9311845070422535 -1.748249295774647 -0.6771029577464787
H 2.767184507042254 -3.1044092957746465 -0.45972295774647876
H 4.319224507042254 -3.371819295774647 -1.2863129577464787
C 2.963994507042253 3.381090704225353 2.401027042253521
H 3.3337945070422537 4.369820704225353 2.6912870422535216
H 3.120994507042253 2.671350704225353 3.2183370422535216
H 3.4665445070422534 3.0664207042253535 1.4881370422535212
C 1.2973745070422538 4.282440704225354 0.8488370422535213
H 1.7592145070422538 3.7367207042253527 0.02653704225352116
H 0.23311450704225378 4.4484607042253534 0.6605570422535213
H 1.7921845070422535 5.251370704225354 0.9736770422535213
C 0.7724845070422537 4.194670704225353 3.2772470422535216
H -0.2956954929577462 4.278220704225354 3.057857042253521
H 0.9298945070422537 3.612620704225354 4.190337042253521
H 1.2046345070422537 5.193640704225353 3.3918370422535213
N 2.876084507042253 -2.324759295774647 -2.4576629577464786
N 1.4527845070422536 3.504690704225353 2.1388470422535213
C -3.593905492957746 -3.637819295774647 0.8297870422535213
H -2.8952554929577463 -1.8680692957746468 1.7595270422535212
H -5.022615492957747 -1.2402792957746467 1.1579970422535213
H -4.898275492957747 -1.7933092957746464 -0.48931295774647876
H -3.883675492957746 0.07871070422535364 -1.2758929577464788
H -3.8751654929577466 -4.038529295774646 -0.1505529577464788
H -4.4603554929577465 -3.7321892957746465 1.4932570422535212
H -2.7953554929577464 -4.271929295774647 1.2313670422535212
H -5.648775492957746 1.147700704225353 0.9733970422535213
H -6.189795492957747 0.5254307042253537 -0.5943629577464788
H -5.2178854929577465 2.002970704225354 -0.5139729577464787
C 3.6710445070422537 1.0263707042253536 -0.27764295774647874
O 2.7356545070422538 1.6631507042253526 -0.7327029577464788
O 3.650814507042253 0.3883007042253537 0.7790570422535212
O 4.756604507042254 0.8696707042253538 -0.8334829577464786
O 9.489715980465993 3.948101566361566 4.070363170031095
H 10.324574725590715 4.398043764107547 4.269185329953706
H 9.205925591012557 4.341309507919938 3.2314278484184618
O -5.6302033702518415 -9.350171581247336 0.10887955820941286
H -5.681358860274387 -9.592578954149644 -0.8279177188485192
H -4.746205608001777 -8.964604216599069 0.20294181395032185
O -1.108151306406667 -0.9855502845101116 -7.109530429576797
H -1.4421105648166623 -1.7218075540815299 -7.643724966824687
H -0.19072071246161837 -0.8805470864642146 -7.403226493550708
O -13.429115323555399 1.7084744734427626 8.419388553189137
H -14.309308977751257 1.3033019858812693 8.411530860361468
H -12.939679022973944 1.2181343890348462 7.74190744378757
O -2.5244358243335423 -3.317688619552497 -4.1487753605674795
H -1.6080787858925465 -3.3181523090445593 -4.463826023146855
H -2.5986591039975613 -4.141221170036772 -3.6435556189215483
O -9.629392060920026 -6.329670540349637 3.2041090714345906
H -9.474284598345296 -6.17968738677529 2.2594323618680203
H -10.053618181808075 -7.200277685964156 3.236316844738823
O 10.648057535736465 -1.7950677803056734 -1.9184649696532927
H 11.106397524352502 -1.9074004121714188 -2.7647942150144393
H 10.640819761833903 -0.8357911918725232 -1.781724391136924
O 6.423994464420057 -14.953645864085455 -1.4464646035650297
H 7.248205487620195 -15.410382706517467 -1.2205553233204656
H 6.401783302436162 -14.976182188704128 -2.4149483270503564
O 1.0221167824815525 -0.13026546350664786 -12.091661404867144
H 0.7428867507395901 0.05284056519145186 -13.001315255805949
H 1.7814933132230335 0.4564742510362375 -11.957326985461076
O 0.39469674107762653 10.65774193292923 5.556722235096541
H 0.8723327130241336 9.984610283134728 6.064388481017668
H 0.9067518507832215 10.740751255197265 4.7382657846112455
O 4.71352153229541 -7.3733321474806734 2.494061384115443
H 3.766693993029807 -7.406077784215414 2.2905603004252537
H 4.767728964315246 -7.691850422896546 3.407609197226455
O 4.439098229699354 -1.4802070655955333 8.243823710095045
H 4.580521700240446 -1.5983684140013645 9.19514103602947
H 4.39537391373273 -0.5187517019909826 8.131334989374732
O 6.362185997706499 7.531463718581026 9.86914110186753
H 6.378615302432374 7.555668979755421 10.837702684926501
H 6.009916055196133 8.39889337336512 9.619273885320638
O 0.26987580103825337 -7.253500808560972 4.6878882286151855
H 0.7535768152535343 -6.469015042704924 4.388584421562288
H -0.48125504718964196 -6.891205646479648 5.181352116526864
O -0.03375837545896854 9.312223566561396 4.504546290180098
H 0.3304575254774278 8.97090982749317 3.6739928205417156
H -0.9809016848470411 9.407175445581114 4.323257469642163
O 0.5976691540980936 7.824358795728685 -0.20509232787165532
H 1.2677884651940587 7.189506379790242 0.08964463243938547
H 0.9696042922107466 8.686079147931077 0.03587288110529985
O -2.0405088198548835 -0.2368139844989503 4.0514289133830985
H -1.9420449266520001 -0.26337482293511205 5.0150505925170314
H -1.1635409528475071 -0.4814615855058727 3.7197108767042204
O 2.2482970281272694 10.189331248823484 -7.358283571822895
H 1.60008248039308 10.612245123360537 -6.775249171697293
H 2.6910852535904475 10.932826688796212 -7.794305431860815
O -2.6347264730618063 2.394277577564727 -4.464360901192682
H -3.147985534109311 2.137840175679438 -3.683481683856891
H -3.251863639317887 2.93075041912823 -4.9842652698896535
O 8.176592209091602 6.080504083842301 3.9721042829822037
H 8.050438815029127 5.469177554857174 3.2309345635349533
H 8.29446948771119 6.943064207118773 3.5465964390844524
O 8.531758512802524 -2.850044651222186 3.9193564038753976
H 9.021538417905038 -2.875406371179651 4.755083503243711
H 8.26146208052394 -1.9233832029716371 3.8345015671030387
O -7.277207605615354 2.4751572003847198 5.078192908268575
H -7.185485882750772 2.479583704670627 4.113550545258034
H -8.097540604128879 2.9656854319878483 5.237559686017626
O 11.734306254366306 6.635951017138719 3.711407986823104
H 11.643117852718653 6.597016338145075 4.6753250595407785
H 10.830084851616101 6.512696301487772 3.3855953502077383
O -6.74195670562823 -2.077265228937607 6.793456527513248
H -6.823509664303906 -3.02978406550272 6.635265700282692
H -5.886058469333005 -1.8473605596112304 6.401609623188806
C 6.873823301722426 6.1974836306367465 -10.38155211676276
O 6.154914487397772 5.95166048263048 -11.306516631698663
O 7.592732116047081 6.443306778643013 -9.45658760182686