146

C -5.3564454929577465 1.0091607042253532 -0.0734429577464788
C -4.079135492957747 0.16955070422535368 -0.19788295774647868
C -4.333545492957747 -1.2789292957746463 0.3017270422535212
C -3.1403854929577464 -2.1745492957746464 0.7330270422535212
C -2.905235492957746 0.902300704225353 0.41966704225352136
C -2.7423854929577463 1.056130704225354 1.8024770422535212
C -1.8861754929577463 1.3499307042253532 -0.4326129577464788
C -1.5304554929577463 1.5279207042253526 2.3254170422535214
H -3.5237954929577464 0.7301007042253529 2.484817042253521
C -0.6776454929577462 1.8010507042253527 0.08546704225352131
H -1.9759254929577463 1.2426607042253535 -1.5115229577464788
C -0.4680254929577463 1.8513207042253539 1.4698070422535212
H -1.3950654929577464 1.5446707042253527 3.404047042253521
H 0.1461845070422536 1.9972507042253538 -0.6030529577464789
C -1.8679654929577463 -2.0866092957746467 -0.08765295774647863
C -0.6628654929577462 -1.814079295774647 0.5787970422535212
C -1.8438954929577462 -2.213429295774647 -1.4808029577464787
C 0.5129345070422537 -1.5763292957746469 -0.13022295774647863
H -0.6401854929577462 -1.7032692957746463 1.6609470422535213
C -0.6547954929577462 -1.9962392957746466 -2.1933129577464787
H -2.7578654929577464 -2.4351492957746466 -2.026182957746479
C 0.5308845070422537 -1.645769295774647 -1.5261029577464789
H 1.4044045070422537 -1.2610992957746463 0.41551704225352126
H -0.6795654929577464 -2.0467992957746466 -3.2793129577464786
C 1.7843245070422535 -1.2521692957746469 -2.2771629577464787
H 1.4981245070422535 -0.9384492957746469 -3.290282957746479
H 2.241984507042254 -0.38631929577464685 -1.8135029577464787
C 0.9385645070422537 2.0647807042253534 1.9815670422535212
H 1.0508945070422537 1.5807407042253532 2.9609770422535213
H 1.6053245070422537 1.5496207042253536 1.3096170422535214
C 3.9676945070422533 -1.6881692957746468 -3.314052957746479
H 4.795084507042254 -2.398849295774647 -3.4044129577464783
H 3.548404507042253 -1.4816192957746468 -4.303802957746479
H 4.307714507042253 -0.7637192957746466 -2.851282957746479
C 2.344694507042253 -3.565079295774647 -3.101282957746479
H 1.6334345070422536 -4.047909295774646 -2.4251929577464786
H 1.8561845070422536 -3.293109295774647 -4.041792957746479
H 3.1808045070422537 -4.243519295774647 -3.298122957746479
C 3.5156645070422536 -2.648489295774647 -1.1110629577464786
H 3.9311845070422535 -1.748249295774647 -0.6771029577464787
H 2.767184507042254 -3.1044092957746465 -0.45972295774647876
H 4.319224507042254 -3.371819295774647 -1.2863129577464787
C 2.963994507042253 3.381090704225353 2.401027042253521
H 3.3337945070422537 4.369820704225353 2.6912870422535216
H 3.120994507042253 2.671350704225353 3.2183370422535216
H 3.4665445070422534 3.0664207042253535 1.4881370422535212
C 1.2973745070422538 4.282440704225354 0.8488370422535213
H 1.7592145070422538 3.7367207042253527 0.02653704225352116
H 0.23311450704225378 4.4484607042253534 0.6605570422535213
H 1.7921845070422535 5.251370704225354 0.9736770422535213
C 0.7724845070422537 4.194670704225353 3.2772470422535216
H -0.2956954929577462 4.278220704225354 3.057857042253521
H 0.9298945070422537 3.612620704225354 4.190337042253521
H 1.2046345070422537 5.193640704225353 3.3918370422535213
N 2.876084507042253 -2.324759295774647 -2.4576629577464786
N 1.4527845070422536 3.504690704225353 2.1388470422535213
C -3.593905492957746 -3.637819295774647 0.8297870422535213
H -2.8952554929577463 -1.8680692957746468 1.7595270422535212
H -5.022615492957747 -1.2402792957746467 1.1579970422535213
H -4.898275492957747 -1.7933092957746464 -0.48931295774647876
H -3.883675492957746 0.07871070422535364 -1.2758929577464788
H -3.8751654929577466 -4.038529295774646 -0.1505529577464788
H -4.4603554929577465 -3.7321892957746465 1.4932570422535212
H -2.7953554929577464 -4.271929295774647 1.2313670422535212
H -5.648775492957746 1.147700704225353 0.9733970422535213
H -6.189795492957747 0.5254307042253537 -0.5943629577464788
H -5.2178854929577465 2.002970704225354 -0.5139729577464787
C 3.6710445070422537 1.0263707042253536 -0.27764295774647874
O 2.7356545070422538 1.6631507042253526 -0.7327029577464788
O 3.650814507042253 0.3883007042253537 0.7790570422535212
O 4.756604507042254 0.8696707042253538 -0.8334829577464786
O 1.322622704052546 -11.37754793155552 -5.143105399845824
H 1.2458761807504546 -11.34769548253324 -4.17760751825912
H 1.5837095539942325 -10.47631429354826 -5.385125090804486
O 8.60061032038619 -6.240238705548519 -6.223115682944649
H 8.51897784263721 -6.870152786414694 -6.954902363749298
H 8.737712304528776 -6.801594971226518 -5.445269854243216
O 10.970265122668884 -0.2054369037757935 5.549557877323347
H 11.004783827205724 -0.09626520483200007 6.511772695379495
H 10.91928584596014 0.7017155395877372 5.2127530345050905
O 2.1004459760299317 8.733656472740982 -2.503957134607594
H 2.514602908135483 9.603061459367218 -2.6115506368201085
H 1.1939881694802645 8.938555083998473 -2.229525452125561
O 9.351069990003753 -6.8671470642652555 4.139984025657659
H 9.77060108949971 -6.944627566789258 5.010017234899894
H 9.438405856904017 -7.753497140189638 3.7582538414154145
O -8.315030801262488 1.3584257941904863 6.029607352540747
H -8.373297588491518 1.0929388270267992 5.099505740526106
H -9.224982551613252 1.2790755956839295 6.35310897901355
O 5.560359767569109 2.2530731586523323 4.71117855042525
H 5.763334089961123 2.6673628005713286 3.859044245313589
H 6.130370187394548 1.4697436641283341 4.732272829251595
O 0.442456418173375 -5.567843830546494 7.322861160755384
H 0.15544648291966934 -4.668899708614176 7.10265189753288
H 1.206839470890377 -5.433941747775284 7.903163431342505
O -0.9716883914279522 6.665865577238136 4.224417619282424
H -1.7864557336688804 7.038429852315228 3.8552057615991475
H -1.2545273791104106 5.825170527464708 4.6145405289316965
O 2.9217958327788063 9.21120353339443 0.3879872226236061
H 2.454649842727509 9.964645596802885 0.7792250505055796
H 2.5558882975270816 9.148075266812132 -0.5070482190793029
O -0.42406200351552226 -8.985342050355523 3.9261463680195474
H -0.5179343674542243 -8.97074622823516 2.961811209392013
H 0.5052031884409485 -9.220926606029709 4.067313164561441
O -9.690960152557288 -1.1754983245473576 0.6404862451216649
H -10.064540686684262 -0.394900175308194 0.20451437581608767
H -8.765363923110872 -0.935453867013754 0.7973690763747174
O 5.456286212513792 -0.8059731992551886 5.052004524970905
H 5.913629266608648 -0.9067801577573569 4.203686987200565
H 6.132869523778256 -0.438683728077534 5.640473225566316
O 1.2477975009155977 -1.4521152717449743 -6.811752480101931
H 2.11766718221107 -1.8155521620205182 -7.035823275275591
H 0.7912581679868014 -1.3949906812868251 -7.664554076579047
O 8.306349135974205 -6.010707098670613 9.662094942578872
H 8.007417356720728 -6.4522048942982275 8.852967730882028
H 7.815477732952303 -6.457935566475582 10.36778177650744
O 7.313012538866961 6.739468325168607 -1.7871737188368633
H 8.079649209203957 7.3321157504244185 -1.7850285073649235
H 6.7696453836245745 7.056995386373953 -1.050362586791417
O -1.049839121331452 10.05490067016725 -5.619474101079771
H -1.1163342716980686 10.030855381848067 -6.58589408017135
H -0.9850320225187752 10.99937227186542 -5.4127487329480966
O -4.6396133508673785 1.347305438204458 -8.984473464956158
H -5.375539680017561 0.7431485170921741 -8.804545119119087
H -4.031307153314151 0.8208582996653968 -9.52463911051534
O 2.528138796610729 3.3045839356869005 7.028774748301613
H 2.8268067574948104 3.0148672351730395 7.903891334525819
H 1.9677065361893447 4.07277996357254 7.215194941734899
O 1.702247238554505 -4.760467999692878 -7.085146328415989
H 1.371577537841212 -3.8897993633245083 -6.817637391042626
H 1.611553208528225 -4.758991701717289 -8.049892076145348
O 9.421498697432325 7.275994701311174 6.431662391196097
H 9.324122635505617 7.209477198449642 7.393463140455896
H 8.869617014867599 8.03573116935231 6.192520065628442
O 11.223496779357285 8.640656582274321 0.497305309065903
H 12.170621190963434 8.74570530199075 0.673053630041232
H 11.173193143553386 8.54644838599435 -0.4657919364283316
O 9.541985607783447 2.755738650260277 6.007419036174975
H 9.43759431463921 3.654657045729541 5.660986455284206
H 8.848102400470392 2.249834521504079 5.5584768891043534
O 5.406904792336401 -3.973958253520102 2.6566198111936816
H 4.818648170543611 -3.413042062526936 3.1841560947786633
H 6.013161056982293 -3.3463016301048976 2.235356889776865
C -3.975572207661557 -4.533101392264919 -4.334489091035494
O -4.131330247416991 -5.343158482320107 -5.201878969465526
O -3.8198141679061224 -3.7230443022097304 -3.4670992126054614