146

C -5.3564454929577465 1.0091607042253532 -0.0734429577464788
C -4.079135492957747 0.16955070422535368 -0.19788295774647868
C -4.333545492957747 -1.2789292957746463 0.3017270422535212
C -3.1403854929577464 -2.1745492957746464 0.7330270422535212
C -2.905235492957746 0.902300704225353 0.41966704225352136
C -2.7423854929577463 1.056130704225354 1.8024770422535212
C -1.8861754929577463 1.3499307042253532 -0.4326129577464788
C -1.5304554929577463 1.5279207042253526 2.3254170422535214
H -3.5237954929577464 0.7301007042253529 2.484817042253521
C -0.6776454929577462 1.8010507042253527 0.08546704225352131
H -1.9759254929577463 1.2426607042253535 -1.5115229577464788
C -0.4680254929577463 1.8513207042253539 1.4698070422535212
H -1.3950654929577464 1.5446707042253527 3.404047042253521
H 0.1461845070422536 1.9972507042253538 -0.6030529577464789
C -1.8679654929577463 -2.0866092957746467 -0.08765295774647863
C -0.6628654929577462 -1.814079295774647 0.5787970422535212
C -1.8438954929577462 -2.213429295774647 -1.4808029577464787
C 0.5129345070422537 -1.5763292957746469 -0.13022295774647863
H -0.6401854929577462 -1.7032692957746463 1.6609470422535213
C -0.6547954929577462 -1.9962392957746466 -2.1933129577464787
H -2.7578654929577464 -2.4351492957746466 -2.026182957746479
C 0.5308845070422537 -1.645769295774647 -1.5261029577464789
H 1.4044045070422537 -1.2610992957746463 0.41551704225352126
H -0.6795654929577464 -2.0467992957746466 -3.2793129577464786
C 1.7843245070422535 -1.2521692957746469 -2.2771629577464787
H 1.4981245070422535 -0.9384492957746469 -3.290282957746479
H 2.241984507042254 -0.38631929577464685 -1.8135029577464787
C 0.9385645070422537 2.0647807042253534 1.9815670422535212
H 1.0508945070422537 1.5807407042253532 2.9609770422535213
H 1.6053245070422537 1.5496207042253536 1.3096170422535214
C 3.9676945070422533 -1.6881692957746468 -3.314052957746479
H 4.795084507042254 -2.398849295774647 -3.4044129577464783
H 3.548404507042253 -1.4816192957746468 -4.303802957746479
H 4.307714507042253 -0.7637192957746466 -2.851282957746479
C 2.344694507042253 -3.565079295774647 -3.101282957746479
H 1.6334345070422536 -4.047909295774646 -2.4251929577464786
H 1.8561845070422536 -3.293109295774647 -4.041792957746479
H 3.1808045070422537 -4.243519295774647 -3.298122957746479
C 3.5156645070422536 -2.648489295774647 -1.1110629577464786
H 3.9311845070422535 -1.748249295774647 -0.6771029577464787
H 2.767184507042254 -3.1044092957746465 -0.45972295774647876
H 4.319224507042254 -3.371819295774647 -1.2863129577464787
C 2.963994507042253 3.381090704225353 2.401027042253521
H 3.3337945070422537 4.369820704225353 2.6912870422535216
H 3.120994507042253 2.671350704225353 3.2183370422535216
H 3.4665445070422534 3.0664207042253535 1.4881370422535212
C 1.2973745070422538 4.282440704225354 0.8488370422535213
H 1.7592145070422538 3.7367207042253527 0.02653704225352116
H 0.23311450704225378 4.4484607042253534 0.6605570422535213
H 1.7921845070422535 5.251370704225354 0.9736770422535213
C 0.7724845070422537 4.194670704225353 3.2772470422535216
H -0.2956954929577462 4.278220704225354 3.057857042253521
H 0.9298945070422537 3.612620704225354 4.190337042253521
H 1.2046345070422537 5.193640704225353 3.3918370422535213
N 2.876084507042253 -2.324759295774647 -2.4576629577464786
N 1.4527845070422536 3.504690704225353 2.1388470422535213
C -3.593905492957746 -3.637819295774647 0.8297870422535213
H -2.8952554929577463 -1.8680692957746468 1.7595270422535212
H -5.022615492957747 -1.2402792957746467 1.1579970422535213
H -4.898275492957747 -1.7933092957746464 -0.48931295774647876
H -3.883675492957746 0.07871070422535364 -1.2758929577464788
H -3.8751654929577466 -4.038529295774646 -0.1505529577464788
H -4.4603554929577465 -3.7321892957746465 1.4932570422535212
H -2.7953554929577464 -4.271929295774647 1.2313670422535212
H -5.648775492957746 1.147700704225353 0.9733970422535213
H -6.189795492957747 0.5254307042253537 -0.5943629577464788
H -5.2178854929577465 2.002970704225354 -0.5139729577464787
C 3.6710445070422537 1.0263707042253536 -0.27764295774647874
O 2.7356545070422538 1.6631507042253526 -0.7327029577464788
O 3.650814507042253 0.3883007042253537 0.7790570422535212
O 4.756604507042254 0.8696707042253538 -0.8334829577464786
O 2.298450415626117 0.4222285682775354 11.783100955467233
H 2.5566203825294296 0.436769638459773 12.716966139724095
H 1.923912265355096 1.302719432836171 11.630068423891927
O -6.435916387285729 -2.651870024785833 -13.861173087096658
H -6.635749001219704 -2.2273494796674993 -14.709003606764796
H -6.139883328531624 -3.5407707264917088 -14.108522869654658
O -4.284929636088858 -7.998886491952472 -11.573902300691262
H -4.324166377237893 -8.064889221485014 -12.539858549565018
H -5.13237528534792 -8.365238490102263 -11.279650657869096
O -7.139085881859409 -2.8209723234257336 5.43145137934231
H -7.0828623335466 -2.682067613254042 6.388797581615675
H -6.2705762063464 -2.543555384129239 5.103285674809294
O 1.9715194723609544 -11.26462119350203 -2.905009841982545
H 2.558352575208323 -11.922273603614371 -2.502408831333091
H 1.5489194925938627 -10.833008903883169 -2.147327828964671
O -1.9914564383810873 10.227880711367686 1.4392417162732203
H -2.327623185570493 9.537076189392707 2.0297909414890487
H -2.6978410346360175 10.891112161210996 1.4289077716004304
O -9.68174240843393 -1.6158425771692304 -2.554572445348536
H -9.847156720570686 -1.6292501340232253 -3.509258623974546
H -10.292500336307267 -0.9417273709688008 -2.2206482224936797
O -7.962861079652007 -9.598841436145321 3.550052052515456
H -7.648178634543303 -9.532129697241823 2.6359996144502866
H -7.718462103456176 -8.748128147832919 3.9444097401838087
O 1.9203493190738778 5.755844880391247 6.519209239750492
H 1.8595515154706077 4.874361170524464 6.917025093150673
H 2.3956200469704836 6.279378514865558 7.181774114369385
O 0.5218653952437629 4.511461202797717 -2.5153103899321145
H 0.27598922302743056 4.481228074246678 -3.45211251566319
H 0.6055401695324947 5.458041849727368 -2.3257172589753905
O 11.152746749342898 -6.648741275088472 -1.7938374628737919
H 11.164879836201637 -6.6751081558170675 -2.7624059595243504
H 10.920344428060378 -7.553986501566791 -1.5379425912942446
O 3.254996299100977 -13.95391949332107 3.8836767431257107
H 3.0432849630218772 -14.613080091162965 4.561653861713292
H 2.7525699569394093 -13.170621568030475 4.153813884662364
O 10.111683939197725 -0.16315685752115172 -8.586732118324353
H 10.247149828733304 -0.2182816644258141 -7.628829406491852
H 10.147068504709782 0.7869505755438473 -8.773830334398584
O -4.200389089478349 9.520445407792929 4.135424020346774
H -3.32156123083123 9.725535237181523 3.782483354445156
H -4.024271367614501 8.89106544201979 4.85084372305903
O 5.065584710755746 7.078878483938311 8.618793630077953
H 5.211472289746047 6.863891387759207 9.552316377349182
H 4.439336446327423 6.403322396431896 8.318129318538423
O 12.122099119112468 2.5617218338903687 -7.624818072461146
H 12.018226695102182 2.783878535053847 -6.6873617926494475
H 11.797309064670143 3.347837862257129 -8.08903241388138
O 3.89888412614007 -3.749553602138767 -6.912373565130617
H 4.4211178424235635 -4.39724270428514 -6.41564614547517
H 4.554902103932687 -3.105807720559339 -7.219283319068824
O -2.2117609020301376 1.7097022519888134 -10.688793717613612
H -2.346557091804372 1.7847798087016717 -11.645434039051285
H -2.288052833004759 2.6213696042240615 -10.369412872169596
O -0.07253729652365948 -14.37367257989771 2.6316432754048495
H -0.07596835268976676 -14.29906708005903 1.6655223698514048
H -0.2717956298326829 -13.475702143467952 2.9364500276349466
O 7.371008283124185 -5.244948768101617 2.2580586265079052
H 8.123502738473395 -5.6321575505181025 2.7300637222306534
H 6.598183441227417 -5.662801997477685 2.66684021458059
O 6.643001343917929 8.947536117480002 -10.666952049724793
H 6.509130328772714 9.344988966726264 -11.54049491692137
H 7.365427731733981 9.466123647716419 -10.282076703709562
O 9.15770584249779 5.190174372088478 -4.521345321453284
H 9.3368246647543 5.79807230157134 -3.7883078655590503
H 8.192716777507265 5.205918289583554 -4.608006603526784
O 2.6581472911497923 9.593553000996588 7.339193950782615
H 2.6560172289695965 9.42978630774068 8.294255880667341
H 1.808563842879309 9.237325364277865 7.038741326293114
O -9.672011923479737 -6.237460483351095 -2.975728477540645
H -9.75539285500456 -6.283445822817186 -2.011415081536917
H -9.517404946531641 -7.156420981213854 -3.2413790569618057
C -4.1980902815097 11.484877698136767 -11.017173372960718
O -4.08615100461663 11.384693262460786 -9.829633506498569
O -4.310029558402766 11.585062133812746 -12.204713239422869