146

C -5.3564454929577465 1.0091607042253532 -0.0734429577464788
C -4.079135492957747 0.16955070422535368 -0.19788295774647868
C -4.333545492957747 -1.2789292957746463 0.3017270422535212
C -3.1403854929577464 -2.1745492957746464 0.7330270422535212
C -2.905235492957746 0.902300704225353 0.41966704225352136
C -2.7423854929577463 1.056130704225354 1.8024770422535212
C -1.8861754929577463 1.3499307042253532 -0.4326129577464788
C -1.5304554929577463 1.5279207042253526 2.3254170422535214
H -3.5237954929577464 0.7301007042253529 2.484817042253521
C -0.6776454929577462 1.8010507042253527 0.08546704225352131
H -1.9759254929577463 1.2426607042253535 -1.5115229577464788
C -0.4680254929577463 1.8513207042253539 1.4698070422535212
H -1.3950654929577464 1.5446707042253527 3.404047042253521
H 0.1461845070422536 1.9972507042253538 -0.6030529577464789
C -1.8679654929577463 -2.0866092957746467 -0.08765295774647863
C -0.6628654929577462 -1.814079295774647 0.5787970422535212
C -1.8438954929577462 -2.213429295774647 -1.4808029577464787
C 0.5129345070422537 -1.5763292957746469 -0.13022295774647863
H -0.6401854929577462 -1.7032692957746463 1.6609470422535213
C -0.6547954929577462 -1.9962392957746466 -2.1933129577464787
H -2.7578654929577464 -2.4351492957746466 -2.026182957746479
C 0.5308845070422537 -1.645769295774647 -1.5261029577464789
H 1.4044045070422537 -1.2610992957746463 0.41551704225352126
H -0.6795654929577464 -2.0467992957746466 -3.2793129577464786
C 1.7843245070422535 -1.2521692957746469 -2.2771629577464787
H 1.4981245070422535 -0.9384492957746469 -3.290282957746479
H 2.241984507042254 -0.38631929577464685 -1.8135029577464787
C 0.9385645070422537 2.0647807042253534 1.9815670422535212
H 1.0508945070422537 1.5807407042253532 2.9609770422535213
H 1.6053245070422537 1.5496207042253536 1.3096170422535214
C 3.9676945070422533 -1.6881692957746468 -3.314052957746479
H 4.795084507042254 -2.398849295774647 -3.4044129577464783
H 3.548404507042253 -1.4816192957746468 -4.303802957746479
H 4.307714507042253 -0.7637192957746466 -2.851282957746479
C 2.344694507042253 -3.565079295774647 -3.101282957746479
H 1.6334345070422536 -4.047909295774646 -2.4251929577464786
H 1.8561845070422536 -3.293109295774647 -4.041792957746479
H 3.1808045070422537 -4.243519295774647 -3.298122957746479
C 3.5156645070422536 -2.648489295774647 -1.1110629577464786
H 3.9311845070422535 -1.748249295774647 -0.6771029577464787
H 2.767184507042254 -3.1044092957746465 -0.45972295774647876
H 4.319224507042254 -3.371819295774647 -1.2863129577464787
C 2.963994507042253 3.381090704225353 2.401027042253521
H 3.3337945070422537 4.369820704225353 2.6912870422535216
H 3.120994507042253 2.671350704225353 3.2183370422535216
H 3.4665445070422534 3.0664207042253535 1.4881370422535212
C 1.2973745070422538 4.282440704225354 0.8488370422535213
H 1.7592145070422538 3.7367207042253527 0.02653704225352116
H 0.23311450704225378 4.4484607042253534 0.6605570422535213
H 1.7921845070422535 5.251370704225354 0.9736770422535213
C 0.7724845070422537 4.194670704225353 3.2772470422535216
H -0.2956954929577462 4.278220704225354 3.057857042253521
H 0.9298945070422537 3.612620704225354 4.190337042253521
H 1.2046345070422537 5.193640704225353 3.3918370422535213
N 2.876084507042253 -2.324759295774647 -2.4576629577464786
N 1.4527845070422536 3.504690704225353 2.1388470422535213
C -3.593905492957746 -3.637819295774647 0.8297870422535213
H -2.8952554929577463 -1.8680692957746468 1.7595270422535212
H -5.022615492957747 -1.2402792957746467 1.1579970422535213
H -4.898275492957747 -1.7933092957746464 -0.48931295774647876
H -3.883675492957746 0.07871070422535364 -1.2758929577464788
H -3.8751654929577466 -4.038529295774646 -0.1505529577464788
H -4.4603554929577465 -3.7321892957746465 1.4932570422535212
H -2.7953554929577464 -4.271929295774647 1.2313670422535212
H -5.648775492957746 1.147700704225353 0.9733970422535213
H -6.189795492957747 0.5254307042253537 -0.5943629577464788
H -5.2178854929577465 2.002970704225354 -0.5139729577464787
C 3.6710445070422537 1.0263707042253536 -0.27764295774647874
O 2.7356545070422538 1.6631507042253526 -0.7327029577464788
O 3.650814507042253 0.3883007042253537 0.7790570422535212
O 4.756604507042254 0.8696707042253538 -0.8334829577464786
O 4.9637652188868735 -6.26446049255105 13.088146815643832
H 5.086599390112417 -7.2007001031483355 13.305711782557115
H 5.494488793689384 -6.1387010207863915 12.287222982367336
O 6.1134526788478185 -8.549694953090425 -5.1822693774006865
H 6.3046219385634625 -9.411962280287966 -4.78362576778505
H 5.147504372393601 -8.483093734864655 -5.14392760789181
O 3.2304540775086776 -6.068326129620165 5.220234375960784
H 3.37559723462979 -5.802835421449161 4.299682636667562
H 3.7044060061738917 -5.397782359309034 5.734726908182055
O -8.575005943174807 -2.251415731553243 4.090914037613896
H -8.534455005139497 -2.238456995914234 3.122846349125587
H -7.645822803013496 -2.2242155377203803 4.364484477894675
O 7.174903023803646 3.469414917119067 -11.1249247603888
H 6.3115652894610506 3.029921272098015 -11.103462017173973
H 7.79847564562556 2.772990429359301 -10.869754106780883
O -13.271985898343782 -5.381474905764403 5.02265168987466
H -13.387093025648664 -6.2761589515768 5.376569991622937
H -12.467189449725021 -5.443587949159911 4.486548537085221
O -5.083186837866643 8.803915743350018 4.533376988055924
H -5.998040696402713 9.046692249840103 4.325845442699238
H -4.552284663008619 9.424399275375345 4.011740130159175
O -6.6143417538360225 -3.319014688946476 -3.404280462911956
H -7.08823818646691 -4.15753549408791 -3.2981089630417797
H -6.39327925703013 -3.0586518784180914 -2.4974703815279304
O -0.15507645076199206 4.380965381681146 10.31127750217451
H -0.8305431080592884 4.457110064536882 11.00186720601639
H -0.47167520877732183 4.968130457019184 9.60845153152002
O 7.868510451514261 3.0864347893664337 5.964065862110468
H 7.819173613812427 3.0882076053397407 6.931810709923727
H 7.220156955429074 2.417299276334336 5.697875415975776
O -8.255991397112531 -9.58890247811577 7.032016495095072
H -8.451092335304237 -9.524096314739596 7.978960602212897
H -7.404065435891606 -10.049478285799157 6.999550724280304
O -0.7251807267240999 -9.476151689008868 -12.91042616951675
H -1.2391477296973785 -9.772511513967888 -12.144282494410753
H 0.06446334330043912 -10.037534276800285 -12.893879958479406
O 10.009762278787935 3.998237957269936 -0.06396982477183866
H 9.867017575173183 4.082684295983124 -1.0186740315122693
H 9.705022673124514 4.845516204799887 0.29410179977089945
O 2.8112334835971504 9.935045657722561 3.8072727611416206
H 2.9360513120194605 9.281761792591121 4.511976995673292
H 2.546351682778832 9.404740760324774 3.040737509707502
O -13.073955806694203 -2.465282938086615 -2.85615563526747
H -13.48598636128331 -3.2071456998829606 -2.388354586054355
H -12.89486399093422 -2.8170597193849667 -3.741108267879614
O -4.593753428328462 6.388602460131535 -7.214335021139098
H -4.934239798599338 6.025953751568485 -6.382756821125824
H -5.045316828153346 5.870897089241985 -7.897733579222667
O 5.788778280021301 7.290422400158346 1.4687735896302676
H 6.182317446840628 7.007964171721999 0.6295408267642368
H 5.1314869603331985 7.952875985230539 1.2078419645104463
O 3.8763621149535625 4.333490372805642 -9.277596940955679
H 3.689773620945526 4.03470060073539 -10.180302187927259
H 3.112565870738708 4.0259932032515175 -8.766693102313333
O -1.3733744155617613 -7.129322637438655 7.845716405791258
H -1.7586085460693923 -7.266265255800567 8.724242865761711
H -1.26742699426768 -6.168121016824075 7.783841267415344
O -0.7022748153185121 7.554496821280109 4.7320634896804075
H -0.6945811171969052 6.992744079026673 3.942543369303504
H -0.5953587471208068 6.9296661525848515 5.464946518627715
O 12.580889847868246 4.775293426011177 -1.8435798796236798
H 13.086977528029704 5.243040272024126 -2.5247960750666034
H 12.635606873931067 5.357019369927971 -1.0705579410391688
O 4.047798411628274 -4.555413401475839 9.752924309974585
H 4.675535360335958 -5.216671616405744 9.42482180569447
H 4.366889266886844 -4.3521481268259965 10.645015223789919
O 8.145306320442813 -3.187789434324433 1.7528831003059318
H 7.944503293511467 -2.248706788188369 1.623386826223236
H 8.506000693800495 -3.469936703111733 0.898919147879381
O -3.1189773247142085 -9.353679609022624 -2.5932076714222614
H -2.3572947370390764 -9.9010176880922 -2.836575746019042
H -2.743137894795967 -8.468201035607798 -2.4764413952892266
C 2.343685204127212 4.598074809943791 8.06888708647034
O 3.2840677162681704 3.884150024951184 8.265890613171567
O 1.4033026919862532 5.311999594936395 7.871883559769111