146

C -5.3564454929577465 1.0091607042253532 -0.0734429577464788
C -4.079135492957747 0.16955070422535368 -0.19788295774647868
C -4.333545492957747 -1.2789292957746463 0.3017270422535212
C -3.1403854929577464 -2.1745492957746464 0.7330270422535212
C -2.905235492957746 0.902300704225353 0.41966704225352136
C -2.7423854929577463 1.056130704225354 1.8024770422535212
C -1.8861754929577463 1.3499307042253532 -0.4326129577464788
C -1.5304554929577463 1.5279207042253526 2.3254170422535214
H -3.5237954929577464 0.7301007042253529 2.484817042253521
C -0.6776454929577462 1.8010507042253527 0.08546704225352131
H -1.9759254929577463 1.2426607042253535 -1.5115229577464788
C -0.4680254929577463 1.8513207042253539 1.4698070422535212
H -1.3950654929577464 1.5446707042253527 3.404047042253521
H 0.1461845070422536 1.9972507042253538 -0.6030529577464789
C -1.8679654929577463 -2.0866092957746467 -0.08765295774647863
C -0.6628654929577462 -1.814079295774647 0.5787970422535212
C -1.8438954929577462 -2.213429295774647 -1.4808029577464787
C 0.5129345070422537 -1.5763292957746469 -0.13022295774647863
H -0.6401854929577462 -1.7032692957746463 1.6609470422535213
C -0.6547954929577462 -1.9962392957746466 -2.1933129577464787
H -2.7578654929577464 -2.4351492957746466 -2.026182957746479
C 0.5308845070422537 -1.645769295774647 -1.5261029577464789
H 1.4044045070422537 -1.2610992957746463 0.41551704225352126
H -0.6795654929577464 -2.0467992957746466 -3.2793129577464786
C 1.7843245070422535 -1.2521692957746469 -2.2771629577464787
H 1.4981245070422535 -0.9384492957746469 -3.290282957746479
H 2.241984507042254 -0.38631929577464685 -1.8135029577464787
C 0.9385645070422537 2.0647807042253534 1.9815670422535212
H 1.0508945070422537 1.5807407042253532 2.9609770422535213
H 1.6053245070422537 1.5496207042253536 1.3096170422535214
C 3.9676945070422533 -1.6881692957746468 -3.314052957746479
H 4.795084507042254 -2.398849295774647 -3.4044129577464783
H 3.548404507042253 -1.4816192957746468 -4.303802957746479
H 4.307714507042253 -0.7637192957746466 -2.851282957746479
C 2.344694507042253 -3.565079295774647 -3.101282957746479
H 1.6334345070422536 -4.047909295774646 -2.4251929577464786
H 1.8561845070422536 -3.293109295774647 -4.041792957746479
H 3.1808045070422537 -4.243519295774647 -3.298122957746479
C 3.5156645070422536 -2.648489295774647 -1.1110629577464786
H 3.9311845070422535 -1.748249295774647 -0.6771029577464787
H 2.767184507042254 -3.1044092957746465 -0.45972295774647876
H 4.319224507042254 -3.371819295774647 -1.2863129577464787
C 2.963994507042253 3.381090704225353 2.401027042253521
H 3.3337945070422537 4.369820704225353 2.6912870422535216
H 3.120994507042253 2.671350704225353 3.2183370422535216
H 3.4665445070422534 3.0664207042253535 1.4881370422535212
C 1.2973745070422538 4.282440704225354 0.8488370422535213
H 1.7592145070422538 3.7367207042253527 0.02653704225352116
H 0.23311450704225378 4.4484607042253534 0.6605570422535213
H 1.7921845070422535 5.251370704225354 0.9736770422535213
C 0.7724845070422537 4.194670704225353 3.2772470422535216
H -0.2956954929577462 4.278220704225354 3.057857042253521
H 0.9298945070422537 3.612620704225354 4.190337042253521
H 1.2046345070422537 5.193640704225353 3.3918370422535213
N 2.876084507042253 -2.324759295774647 -2.4576629577464786
N 1.4527845070422536 3.504690704225353 2.1388470422535213
C -3.593905492957746 -3.637819295774647 0.8297870422535213
H -2.8952554929577463 -1.8680692957746468 1.7595270422535212
H -5.022615492957747 -1.2402792957746467 1.1579970422535213
H -4.898275492957747 -1.7933092957746464 -0.48931295774647876
H -3.883675492957746 0.07871070422535364 -1.2758929577464788
H -3.8751654929577466 -4.038529295774646 -0.1505529577464788
H -4.4603554929577465 -3.7321892957746465 1.4932570422535212
H -2.7953554929577464 -4.271929295774647 1.2313670422535212
H -5.648775492957746 1.147700704225353 0.9733970422535213
H -6.189795492957747 0.5254307042253537 -0.5943629577464788
H -5.2178854929577465 2.002970704225354 -0.5139729577464787
C 3.6710445070422537 1.0263707042253536 -0.27764295774647874
O 2.7356545070422538 1.6631507042253526 -0.7327029577464788
O 3.650814507042253 0.3883007042253537 0.7790570422535212
O 4.756604507042254 0.8696707042253538 -0.8334829577464786
O 5.311008985522843 -7.438281931962523 0.6693997563032232
H 5.080647284401526 -7.525163000876652 -0.26780487632554895
H 5.84270205958857 -6.628993609034598 0.7056879039969683
O 10.087017362037995 7.787172733485761 -8.457042181687507
H 10.392442374003494 7.939937728484679 -9.363875008215558
H 10.882977765977445 7.909841200341122 -7.918190229014137
O -1.2902842142095796 -9.64526713260523 11.684714924788295
H -0.3919706543800401 -9.312312597195689 11.539314159740119
H -1.762402782338103 -8.88786991837898 12.062094656372532
O 8.85667508096378 -4.506792609303536 -5.626865128407269
H 8.673728668138672 -3.9802417702501907 -6.419482426241883
H 9.662567491665724 -4.99569868343657 -5.851520903647595
O -0.17383727070241317 12.363505395206085 0.6826317702515561
H 0.6535319652210694 11.865828607723106 0.6005018758889134
H -0.8572510403672213 11.724826487353987 0.4296558496634755
O -8.738565081444403 5.988427224919851 -5.0715199714280175
H -8.806255799043939 5.971259024001695 -4.105036357222327
H -9.457035284889827 6.577835477590298 -5.346038500392931
O -4.61998178194186 7.711557730922785 -3.0791782533475156
H -4.069090417463086 7.7368314932389115 -3.875951306594866
H -4.353820801924464 8.501710179711385 -2.5854380537591513
O -12.18277622360839 -1.935120742791149 -1.107695145005269
H -11.758159650092786 -1.1876900763422533 -1.5549260934509563
H -11.747595592581806 -2.713104652013964 -1.487590919751042
O 5.73801468701547 4.903841681370206 2.6635426574188794
H 5.441163903495459 4.162213444427621 2.1150588131782393
H 6.241840283028067 4.481515935929991 3.375415313053943
O -1.2968971282322281 -0.5091427431907232 9.805258485179106
H -1.9455178438905192 -1.1891690156216337 10.041526961541587
H -1.6946387147030253 -0.06079395358198969 9.043847336358656
O -0.28298218930577884 -4.476519490815544 -2.235074055383434
H -0.36477821739692723 -5.227241625386487 -2.842275046286579
H -0.7327080525926004 -3.752523462789821 -2.6960928658390366
O -3.930804863939642 -11.231100580833528 -4.279013500892951
H -3.4305799890027853 -10.820283929654932 -5.0001044178436596
H -4.203761460992608 -10.48263213040933 -3.727423418363483
O 6.171317897291129 6.036785483571194 -6.190359510003187
H 5.556167123870157 6.217789459024425 -5.46386488254218
H 6.273813689470278 5.073332209195531 -6.175718984726353
O -0.45902046427001686 -8.377832917018777 -2.8156899139795795
H -0.7652412859455322 -8.810285899590772 -2.0044066199712796
H -0.2155601529950748 -7.485264527576305 -2.5275741537338385
O 5.398504740407407 -7.995779963090253 -4.44658788025288
H 4.898658568404998 -7.890607754690006 -3.623143912629852
H 5.183388238999391 -7.199006153547525 -4.954365717056283
O -2.154375151786073 8.593496464994992 -2.8416052264639156
H -1.7270974197583664 8.697973122654506 -3.7050203784143294
H -1.8888235878447661 7.706824069186683 -2.5548015066486447
O 0.5010119844344902 -3.9331081632299463 0.12114089351798801
H 0.5395728993993223 -4.896482948279119 0.02424178996931059
H 0.6646304467922389 -3.6010606318990224 -0.7743675542437986
O 3.581410869566442 10.88883396871239 -1.4201733228008706
H 3.992410352493645 11.42185853018492 -0.7230853808591169
H 3.4948780492806795 10.00958013394261 -1.022195045308206
O -5.482863697662116 -2.9118366318140962 -2.518449765191654
H -6.246631389789053 -3.498210476607069 -2.4098588654541544
H -4.821439173615114 -3.2738600964268936 -1.9098295598427486
O 8.446132273123053 -2.004627200628219 0.9247077894428326
H 9.232648191784477 -2.39495217938258 1.334593721810101
H 8.716945177502632 -1.0982074553231547 0.7148851013402382
O -1.6021109498389592 -11.399082437738356 1.4264570352937178
H -1.4214648779302896 -11.326593336137488 0.47720486450185307
H -1.4711816459901028 -12.339801748603644 1.6184639098029172
O -3.429893324476178 3.9824698455315004 -10.132442081437269
H -3.476071477256741 4.244340568971076 -11.06424606260016
H -3.9504813276592987 3.166156780914009 -10.092654447973965
O -5.6899917360834245 10.029120314452468 -5.270684912506509
H -5.268880802590635 10.146264464329942 -6.135502920380025
H -4.981852224992823 9.675900603307054 -4.711456682898314
O 9.784417474698495 8.179931704414656 -0.612813136463287
H 9.567013745878965 8.333942572823592 0.31884325298900995
H 10.676681916211233 8.545545847898008 -0.708481358966341
C -8.504013997599527 -4.392343686273781 3.554209708842566
O -8.142252143750119 -4.318333666768357 4.692835694586896
O -8.865775851448934 -4.4663537057792055 2.415583723098236