146

C -5.3564454929577465 1.0091607042253532 -0.0734429577464788
C -4.079135492957747 0.16955070422535368 -0.19788295774647868
C -4.333545492957747 -1.2789292957746463 0.3017270422535212
C -3.1403854929577464 -2.1745492957746464 0.7330270422535212
C -2.905235492957746 0.902300704225353 0.41966704225352136
C -2.7423854929577463 1.056130704225354 1.8024770422535212
C -1.8861754929577463 1.3499307042253532 -0.4326129577464788
C -1.5304554929577463 1.5279207042253526 2.3254170422535214
H -3.5237954929577464 0.7301007042253529 2.484817042253521
C -0.6776454929577462 1.8010507042253527 0.08546704225352131
H -1.9759254929577463 1.2426607042253535 -1.5115229577464788
C -0.4680254929577463 1.8513207042253539 1.4698070422535212
H -1.3950654929577464 1.5446707042253527 3.404047042253521
H 0.1461845070422536 1.9972507042253538 -0.6030529577464789
C -1.8679654929577463 -2.0866092957746467 -0.08765295774647863
C -0.6628654929577462 -1.814079295774647 0.5787970422535212
C -1.8438954929577462 -2.213429295774647 -1.4808029577464787
C 0.5129345070422537 -1.5763292957746469 -0.13022295774647863
H -0.6401854929577462 -1.7032692957746463 1.6609470422535213
C -0.6547954929577462 -1.9962392957746466 -2.1933129577464787
H -2.7578654929577464 -2.4351492957746466 -2.026182957746479
C 0.5308845070422537 -1.645769295774647 -1.5261029577464789
H 1.4044045070422537 -1.2610992957746463 0.41551704225352126
H -0.6795654929577464 -2.0467992957746466 -3.2793129577464786
C 1.7843245070422535 -1.2521692957746469 -2.2771629577464787
H 1.4981245070422535 -0.9384492957746469 -3.290282957746479
H 2.241984507042254 -0.38631929577464685 -1.8135029577464787
C 0.9385645070422537 2.0647807042253534 1.9815670422535212
H 1.0508945070422537 1.5807407042253532 2.9609770422535213
H 1.6053245070422537 1.5496207042253536 1.3096170422535214
C 3.9676945070422533 -1.6881692957746468 -3.314052957746479
H 4.795084507042254 -2.398849295774647 -3.4044129577464783
H 3.548404507042253 -1.4816192957746468 -4.303802957746479
H 4.307714507042253 -0.7637192957746466 -2.851282957746479
C 2.344694507042253 -3.565079295774647 -3.101282957746479
H 1.6334345070422536 -4.047909295774646 -2.4251929577464786
H 1.8561845070422536 -3.293109295774647 -4.041792957746479
H 3.1808045070422537 -4.243519295774647 -3.298122957746479
C 3.5156645070422536 -2.648489295774647 -1.1110629577464786
H 3.9311845070422535 -1.748249295774647 -0.6771029577464787
H 2.767184507042254 -3.1044092957746465 -0.45972295774647876
H 4.319224507042254 -3.371819295774647 -1.2863129577464787
C 2.963994507042253 3.381090704225353 2.401027042253521
H 3.3337945070422537 4.369820704225353 2.6912870422535216
H 3.120994507042253 2.671350704225353 3.2183370422535216
H 3.4665445070422534 3.0664207042253535 1.4881370422535212
C 1.2973745070422538 4.282440704225354 0.8488370422535213
H 1.7592145070422538 3.7367207042253527 0.02653704225352116
H 0.23311450704225378 4.4484607042253534 0.6605570422535213
H 1.7921845070422535 5.251370704225354 0.9736770422535213
C 0.7724845070422537 4.194670704225353 3.2772470422535216
H -0.2956954929577462 4.278220704225354 3.057857042253521
H 0.9298945070422537 3.612620704225354 4.190337042253521
H 1.2046345070422537 5.193640704225353 3.3918370422535213
N 2.876084507042253 -2.324759295774647 -2.4576629577464786
N 1.4527845070422536 3.504690704225353 2.1388470422535213
C -3.593905492957746 -3.637819295774647 0.8297870422535213
H -2.8952554929577463 -1.8680692957746468 1.7595270422535212
H -5.022615492957747 -1.2402792957746467 1.1579970422535213
H -4.898275492957747 -1.7933092957746464 -0.48931295774647876
H -3.883675492957746 0.07871070422535364 -1.2758929577464788
H -3.8751654929577466 -4.038529295774646 -0.1505529577464788
H -4.4603554929577465 -3.7321892957746465 1.4932570422535212
H -2.7953554929577464 -4.271929295774647 1.2313670422535212
H -5.648775492957746 1.147700704225353 0.9733970422535213
H -6.189795492957747 0.5254307042253537 -0.5943629577464788
H -5.2178854929577465 2.002970704225354 -0.5139729577464787
C 3.6710445070422537 1.0263707042253536 -0.27764295774647874
O 2.7356545070422538 1.6631507042253526 -0.7327029577464788
O 3.650814507042253 0.3883007042253537 0.7790570422535212
O 4.756604507042254 0.8696707042253538 -0.8334829577464786
O 6.271577529260229 -3.19506467746721 -12.446046515651574
H 5.777813789866715 -2.718592937666352 -13.130253653681628
H 5.892407622846607 -4.086660501502313 -12.461826659296365
O -8.038482738638287 -6.664077219272615 -4.708169151259943
H -8.42723348665838 -6.506456058619186 -3.8346728533123873
H -8.33244837415082 -5.906089161324708 -5.23542644466239
O 3.136651517292383 9.241586400712904 -2.357132218735486
H 2.6177355636945103 9.595502206916652 -3.0949920916929203
H 2.6957607690949112 8.406387393742563 -2.140291467930596
O 2.0706446659959954 -8.036064593765119 0.9843862033783128
H 2.8118138880934698 -7.967191361437393 1.6047828659935761
H 2.218839769034932 -7.309107521257757 0.361061592547965
O 1.4842722641387023 -0.25736016290775665 7.465790026143312
H 2.0228914629248553 0.21919818168176763 8.115211968951726
H 1.5587247415362109 0.2782846799285008 6.661735690135917
O -1.219062143024646 1.4914957136731375 6.56124479803778
H -0.7165986617610232 2.016448111411797 5.9202122036988705
H -2.1330700662968165 1.5473071313598732 6.244327543614025
O 1.9149082036854108 6.8703249952791605 -3.0565986669697045
H 2.2304543263963246 6.016869677764964 -3.3897833340071477
H 1.4038988243398245 6.638704749550424 -2.266545871082368
O 11.080075832312216 -1.3935844678831906 9.901865453226176
H 11.260326786764018 -1.9048121329457732 10.705061086178619
H 10.758186835065873 -0.5419984186788165 10.233754920597812
O 7.4701906860474026 -6.611423822676646 2.6706832161665646
H 6.876458799632042 -7.303316404691533 2.3424539382122167
H 7.711284362877221 -6.912252305299903 3.5596927815455133
O -3.2403476316294997 7.631227512994689 9.153701757046708
H -4.2062409892301 7.692915555029087 9.200733279592777
H -2.9622642399218138 8.517979461369485 8.879288649470098
O -0.3235142087166931 -9.35511125424675 8.708149667406095
H -1.0161277855170212 -9.118344175754316 9.343126155690516
H -0.7948161941189342 -9.429992911818502 7.864805656805906
O 4.422292711013763 -5.511879460620235 -0.158935082778821
H 3.6474681197693855 -5.382722257211181 -0.7263261529504759
H 4.04674293233353 -5.632886631157428 0.7260968786281153
O -10.92952434114027 7.388461899673416 -6.8474243913268245
H -10.920101587777769 7.296132471101681 -5.882875872464923
H -10.42125534324914 6.625210780379104 -7.160589362194775
O -8.589933242302351 -7.932501437315683 4.446589341729745
H -8.625211134858695 -8.584914077283242 3.7309912880659986
H -8.132669292279413 -7.17541329314856 4.050749517721341
O -2.939680752984172 -13.436575482020594 -1.2414966420645706
H -2.6278912970782278 -12.91991611819364 -1.9996640337768525
H -2.1261909955823364 -13.686355097236767 -0.7780244177352551
O -6.915355130324297 -9.102675319021074 -2.838273937833251
H -7.874242304194323 -9.035221986829685 -2.960555549958027
H -6.573976846899102 -8.272065498862252 -3.2022933584159947
O -4.920720224333836 3.7227057788209903 -3.0242298198340896
H -5.055599836461423 3.0001311417870133 -3.655625686978887
H -5.406595583031081 3.4381727314272807 -2.235605685628401
O -3.6288352215725608 7.759427589426275 -8.90222614883372
H -3.0708636339328583 8.218165575736839 -9.548132120475536
H -3.1110077433171135 6.977257184246328 -8.659273263845206
O -0.15361345034204543 -5.247295855518133 3.46970784847793
H 0.6279777253034893 -5.522990782017307 3.971778459603145
H -0.6087206295178871 -6.079066577351963 3.269715683474808
O -0.19929571058683498 7.271518289096159 5.914987385874787
H -0.35563748930489963 7.300769148576359 6.870847727319574
H 0.7177036513771191 7.569477152400758 5.818578723214574
O 8.237527764508615 6.272600694975164 -0.7057080222915433
H 7.640804807632467 6.424179398322585 0.042565300985788035
H 9.023691351569934 6.795498954790377 -0.48779480892185667
O 7.591187600194529 8.600109706148531 -0.04646091550677678
H 8.091139121205757 8.086355919487278 -0.6984370502155435
H 6.774444320428584 8.092958726296606 0.07474239671032956
O -6.913063041722207 -4.345708261141599 -3.89136201773486
H -6.439123705786876 -4.580640208146942 -4.703246149264388
H -7.304168936929971 -3.48175492770128 -4.090316184997304
O 1.676244406026842 -2.898669047530256 6.367649138949818
H 1.9901872358506931 -2.7161787928211627 7.2660391229981744
H 2.4803571795491806 -2.867406266558903 5.827846183896635
C 2.6823451741506164 10.699577134419098 6.315926936730936
O 2.486163241993557 10.861024214315727 7.485655857117182
O 2.878527106307676 10.538130054522469 5.146198016344688