146

C -5.3564454929577465 1.0091607042253532 -0.0734429577464788
C -4.079135492957747 0.16955070422535368 -0.19788295774647868
C -4.333545492957747 -1.2789292957746463 0.3017270422535212
C -3.1403854929577464 -2.1745492957746464 0.7330270422535212
C -2.905235492957746 0.902300704225353 0.41966704225352136
C -2.7423854929577463 1.056130704225354 1.8024770422535212
C -1.8861754929577463 1.3499307042253532 -0.4326129577464788
C -1.5304554929577463 1.5279207042253526 2.3254170422535214
H -3.5237954929577464 0.7301007042253529 2.484817042253521
C -0.6776454929577462 1.8010507042253527 0.08546704225352131
H -1.9759254929577463 1.2426607042253535 -1.5115229577464788
C -0.4680254929577463 1.8513207042253539 1.4698070422535212
H -1.3950654929577464 1.5446707042253527 3.404047042253521
H 0.1461845070422536 1.9972507042253538 -0.6030529577464789
C -1.8679654929577463 -2.0866092957746467 -0.08765295774647863
C -0.6628654929577462 -1.814079295774647 0.5787970422535212
C -1.8438954929577462 -2.213429295774647 -1.4808029577464787
C 0.5129345070422537 -1.5763292957746469 -0.13022295774647863
H -0.6401854929577462 -1.7032692957746463 1.6609470422535213
C -0.6547954929577462 -1.9962392957746466 -2.1933129577464787
H -2.7578654929577464 -2.4351492957746466 -2.026182957746479
C 0.5308845070422537 -1.645769295774647 -1.5261029577464789
H 1.4044045070422537 -1.2610992957746463 0.41551704225352126
H -0.6795654929577464 -2.0467992957746466 -3.2793129577464786
C 1.7843245070422535 -1.2521692957746469 -2.2771629577464787
H 1.4981245070422535 -0.9384492957746469 -3.290282957746479
H 2.241984507042254 -0.38631929577464685 -1.8135029577464787
C 0.9385645070422537 2.0647807042253534 1.9815670422535212
H 1.0508945070422537 1.5807407042253532 2.9609770422535213
H 1.6053245070422537 1.5496207042253536 1.3096170422535214
C 3.9676945070422533 -1.6881692957746468 -3.314052957746479
H 4.795084507042254 -2.398849295774647 -3.4044129577464783
H 3.548404507042253 -1.4816192957746468 -4.303802957746479
H 4.307714507042253 -0.7637192957746466 -2.851282957746479
C 2.344694507042253 -3.565079295774647 -3.101282957746479
H 1.6334345070422536 -4.047909295774646 -2.4251929577464786
H 1.8561845070422536 -3.293109295774647 -4.041792957746479
H 3.1808045070422537 -4.243519295774647 -3.298122957746479
C 3.5156645070422536 -2.648489295774647 -1.1110629577464786
H 3.9311845070422535 -1.748249295774647 -0.6771029577464787
H 2.767184507042254 -3.1044092957746465 -0.45972295774647876
H 4.319224507042254 -3.371819295774647 -1.2863129577464787
C 2.963994507042253 3.381090704225353 2.401027042253521
H 3.3337945070422537 4.369820704225353 2.6912870422535216
H 3.120994507042253 2.671350704225353 3.2183370422535216
H 3.4665445070422534 3.0664207042253535 1.4881370422535212
C 1.2973745070422538 4.282440704225354 0.8488370422535213
H 1.7592145070422538 3.7367207042253527 0.02653704225352116
H 0.23311450704225378 4.4484607042253534 0.6605570422535213
H 1.7921845070422535 5.251370704225354 0.9736770422535213
C 0.7724845070422537 4.194670704225353 3.2772470422535216
H -0.2956954929577462 4.278220704225354 3.057857042253521
H 0.9298945070422537 3.612620704225354 4.190337042253521
H 1.2046345070422537 5.193640704225353 3.3918370422535213
N 2.876084507042253 -2.324759295774647 -2.4576629577464786
N 1.4527845070422536 3.504690704225353 2.1388470422535213
C -3.593905492957746 -3.637819295774647 0.8297870422535213
H -2.8952554929577463 -1.8680692957746468 1.7595270422535212
H -5.022615492957747 -1.2402792957746467 1.1579970422535213
H -4.898275492957747 -1.7933092957746464 -0.48931295774647876
H -3.883675492957746 0.07871070422535364 -1.2758929577464788
H -3.8751654929577466 -4.038529295774646 -0.1505529577464788
H -4.4603554929577465 -3.7321892957746465 1.4932570422535212
H -2.7953554929577464 -4.271929295774647 1.2313670422535212
H -5.648775492957746 1.147700704225353 0.9733970422535213
H -6.189795492957747 0.5254307042253537 -0.5943629577464788
H -5.2178854929577465 2.002970704225354 -0.5139729577464787
C 3.6710445070422537 1.0263707042253536 -0.27764295774647874
O 2.7356545070422538 1.6631507042253526 -0.7327029577464788
O 3.650814507042253 0.3883007042253537 0.7790570422535212
O 4.756604507042254 0.8696707042253538 -0.8334829577464786
O 11.936896310580591 4.39476654411396 4.8140765996405985
H 12.003173696828469 4.403804614575131 3.8473848296050353
H 12.41068175466156 3.590336572768612 5.073656488072508
O -5.486700017953538 11.354664342035381 4.653367173642257
H -5.070792145882079 11.444156586672582 3.7827472008649345
H -5.916927143980601 12.21106038863882 4.796378976275779
O 5.582327097165637 -3.6986849766981087 -7.436010460703598
H 5.617533427348812 -2.788408839802077 -7.76635153567411
H 5.374586680458799 -4.225226123004355 -8.222496496697229
O -0.5143999905377155 -11.007936986927266 2.202888904069299
H -1.3840496969507976 -11.420637887747358 2.314040653933734
H 0.10653579052455164 -11.682155487829988 2.517261474655665
O 2.536773859202512 10.015999668576518 -8.169289378303858
H 3.0139354113294536 10.312482425044088 -8.958834934424086
H 3.1261125204980833 10.252054875261859 -7.4372239263126545
O -4.843788852610568 4.019983380641264 -10.209534000103563
H -5.143485322343196 3.4443002164024445 -9.489993676465076
H -4.043359039502299 4.4374222556940275 -9.85737090694622
O 0.7678347708652424 9.358429871434033 2.6295180707581793
H 0.7279728366211327 9.51094729216992 1.6734235045826404
H -0.1560439506033413 9.2107195618974 2.881692051918342
O -0.1864498010075737 10.631973629320164 -6.62993654443846
H 0.5756892012025707 10.209971278142767 -6.205642408477479
H -0.0022289488764846155 11.580132198846083 -6.552348214293652
O -6.979321245790348 1.2675079348700662 3.5910392072120674
H -7.80386691496759 1.3579522144869944 4.09195000628275
H -6.310611151418295 1.0936174111972947 4.270414537763398
O -5.217010483587146 -4.2268381740312115 -7.921391971908352
H -5.629678988422344 -3.3655516694136405 -8.085274914830213
H -4.313848999328428 -4.1211407902287895 -8.256189434128295
O -10.844048883053185 -8.467634868015072 -8.973497575765577
H -10.172738980872266 -8.906855460747986 -8.429994454290462
H -10.50787910128899 -7.564647532165405 -9.076287134689306
O 6.56042651322689 -0.9848750787117395 -10.19571531275057
H 6.739511651932581 -0.8702617015971779 -11.141103933256
H 6.476223345589281 -1.944188767472728 -10.08806301404972
O 2.245725128491771 0.6341734382636156 -4.074044205168004
H 2.246224728147211 0.6792717102247756 -3.1060910796674444
H 2.1724079210380314 1.5597206526036098 -4.351440826305792
O -7.80437538396554 -5.199817764375478 -6.175908654043938
H -8.615753751294761 -5.426617352344954 -6.654651224562834
H -7.915923035158917 -4.262439436279074 -5.9571829449276335
O 5.312410122410582 0.9468320367671414 -7.678893421871445
H 6.003796091690766 0.8646540312745281 -7.004950120253454
H 5.79465961190592 1.2052963237848169 -8.478639373107168
O -6.109627603180583 3.544443744252932 -2.9869633173972687
H -6.8185570770279895 4.204164087968295 -3.020954876621946
H -5.483992434762011 3.8379608797747817 -3.6662204642075986
O -2.6766419647947064 -5.0267828319423 -3.302010947630029
H -1.8483609243387424 -5.300753912231894 -2.880279134642036
H -2.5039044143592077 -4.117268698709505 -3.5882062033896927
O 11.514983894369317 -5.207840531679237 -3.5326190011865473
H 11.946313746303495 -5.223682506594361 -2.6650528956007946
H 11.88508887604958 -4.422894957308067 -3.9637160808687995
O -0.7243093132519225 -12.693008750952863 -0.3823773524662011
H -1.4360174746765701 -12.289614892398316 -0.9017156282961478
H -0.5843093499597012 -12.069955339984242 0.3464342841440704
O -3.2526730490394526 -8.794738631064545 -6.176044865417207
H -3.8852540615877293 -8.54984370194151 -5.484065752182406
H -2.7902648644515566 -7.966559380096528 -6.374185581556473
O -10.06647705188717 0.06616360639647745 0.5197955946379531
H -9.973697608527818 -0.33237985713098084 1.3981590953991507
H -9.216956269555396 -0.11424503097035332 0.08999435191074112
O -8.98431716798461 -3.081067147456165 5.057311904478152
H -9.592490689513737 -3.8240037988646494 4.9264017956064095
H -9.424384839775115 -2.533093241652696 5.724415335066974
O 10.314249495730126 -4.404318229692467 -7.008115742956391
H 9.58786021756248 -5.036540053649965 -6.9003125019339535
H 10.079529071828764 -3.674782494515126 -6.415118375337595
O 0.20290322986352982 -4.182315965686621 6.313519693584991
H 0.22633782355993182 -4.013755085124458 5.359577658520808
H 0.6527521242699437 -5.0349384816653515 6.411666327492771
C 6.975805537777145 0.41826455719288175 -4.159327462371431
O 6.932418007274051 0.3231499080951033 -5.351757327404948
O 7.01919306828024 0.5133792062906603 -2.9668975973379155