146

C -5.3564454929577465 1.0091607042253532 -0.0734429577464788
C -4.079135492957747 0.16955070422535368 -0.19788295774647868
C -4.333545492957747 -1.2789292957746463 0.3017270422535212
C -3.1403854929577464 -2.1745492957746464 0.7330270422535212
C -2.905235492957746 0.902300704225353 0.41966704225352136
C -2.7423854929577463 1.056130704225354 1.8024770422535212
C -1.8861754929577463 1.3499307042253532 -0.4326129577464788
C -1.5304554929577463 1.5279207042253526 2.3254170422535214
H -3.5237954929577464 0.7301007042253529 2.484817042253521
C -0.6776454929577462 1.8010507042253527 0.08546704225352131
H -1.9759254929577463 1.2426607042253535 -1.5115229577464788
C -0.4680254929577463 1.8513207042253539 1.4698070422535212
H -1.3950654929577464 1.5446707042253527 3.404047042253521
H 0.1461845070422536 1.9972507042253538 -0.6030529577464789
C -1.8679654929577463 -2.0866092957746467 -0.08765295774647863
C -0.6628654929577462 -1.814079295774647 0.5787970422535212
C -1.8438954929577462 -2.213429295774647 -1.4808029577464787
C 0.5129345070422537 -1.5763292957746469 -0.13022295774647863
H -0.6401854929577462 -1.7032692957746463 1.6609470422535213
C -0.6547954929577462 -1.9962392957746466 -2.1933129577464787
H -2.7578654929577464 -2.4351492957746466 -2.026182957746479
C 0.5308845070422537 -1.645769295774647 -1.5261029577464789
H 1.4044045070422537 -1.2610992957746463 0.41551704225352126
H -0.6795654929577464 -2.0467992957746466 -3.2793129577464786
C 1.7843245070422535 -1.2521692957746469 -2.2771629577464787
H 1.4981245070422535 -0.9384492957746469 -3.290282957746479
H 2.241984507042254 -0.38631929577464685 -1.8135029577464787
C 0.9385645070422537 2.0647807042253534 1.9815670422535212
H 1.0508945070422537 1.5807407042253532 2.9609770422535213
H 1.6053245070422537 1.5496207042253536 1.3096170422535214
C 3.9676945070422533 -1.6881692957746468 -3.314052957746479
H 4.795084507042254 -2.398849295774647 -3.4044129577464783
H 3.548404507042253 -1.4816192957746468 -4.303802957746479
H 4.307714507042253 -0.7637192957746466 -2.851282957746479
C 2.344694507042253 -3.565079295774647 -3.101282957746479
H 1.6334345070422536 -4.047909295774646 -2.4251929577464786
H 1.8561845070422536 -3.293109295774647 -4.041792957746479
H 3.1808045070422537 -4.243519295774647 -3.298122957746479
C 3.5156645070422536 -2.648489295774647 -1.1110629577464786
H 3.9311845070422535 -1.748249295774647 -0.6771029577464787
H 2.767184507042254 -3.1044092957746465 -0.45972295774647876
H 4.319224507042254 -3.371819295774647 -1.2863129577464787
C 2.963994507042253 3.381090704225353 2.401027042253521
H 3.3337945070422537 4.369820704225353 2.6912870422535216
H 3.120994507042253 2.671350704225353 3.2183370422535216
H 3.4665445070422534 3.0664207042253535 1.4881370422535212
C 1.2973745070422538 4.282440704225354 0.8488370422535213
H 1.7592145070422538 3.7367207042253527 0.02653704225352116
H 0.23311450704225378 4.4484607042253534 0.6605570422535213
H 1.7921845070422535 5.251370704225354 0.9736770422535213
C 0.7724845070422537 4.194670704225353 3.2772470422535216
H -0.2956954929577462 4.278220704225354 3.057857042253521
H 0.9298945070422537 3.612620704225354 4.190337042253521
H 1.2046345070422537 5.193640704225353 3.3918370422535213
N 2.876084507042253 -2.324759295774647 -2.4576629577464786
N 1.4527845070422536 3.504690704225353 2.1388470422535213
C -3.593905492957746 -3.637819295774647 0.8297870422535213
H -2.8952554929577463 -1.8680692957746468 1.7595270422535212
H -5.022615492957747 -1.2402792957746467 1.1579970422535213
H -4.898275492957747 -1.7933092957746464 -0.48931295774647876
H -3.883675492957746 0.07871070422535364 -1.2758929577464788
H -3.8751654929577466 -4.038529295774646 -0.1505529577464788
H -4.4603554929577465 -3.7321892957746465 1.4932570422535212
H -2.7953554929577464 -4.271929295774647 1.2313670422535212
H -5.648775492957746 1.147700704225353 0.9733970422535213
H -6.189795492957747 0.5254307042253537 -0.5943629577464788
H -5.2178854929577465 2.002970704225354 -0.5139729577464787
C 3.6710445070422537 1.0263707042253536 -0.27764295774647874
O 2.7356545070422538 1.6631507042253526 -0.7327029577464788
O 3.650814507042253 0.3883007042253537 0.7790570422535212
O 4.756604507042254 0.8696707042253538 -0.8334829577464786
O 6.411005380537098 -5.342595926954458 -0.8943259360735324
H 6.5320685624804184 -5.371848538208573 -1.8552917770962896
H 5.632992234057956 -5.899058888784255 -0.7393857530439731
O 4.0077085625477755 -4.236832197745143 -12.618069099105753
H 3.1405561896080387 -4.668771443317633 -12.597030868684591
H 4.625929068037056 -4.940834232655746 -12.370790944522078
O -0.6527890875790505 -5.935469127804459 -4.758777708944694
H 0.23962094521866717 -6.0932009248539885 -5.10184092536625
H -0.8113906382280641 -6.685086182141836 -4.165581481480054
O -1.7057679283764766 6.868568298699 -0.5465095045798103
H -1.1377196243789567 7.5462069070319995 -0.9428608609822589
H -1.6764415186386576 7.064130259036964 0.4020986472197947
O -3.4201220422566014 10.173356856363785 -4.527027708040539
H -2.9058188590332206 9.564807132145571 -5.078504657495575
H -3.913908059616558 10.708283943805933 -5.166551221666467
O -2.0548229882173326 -5.328561312114389 -9.925039207785494
H -2.4546463322285543 -4.879799846939315 -10.685119333731176
H -2.683964229296174 -6.034171666429181 -9.712301644206496
O 4.066476455064045 10.153679707553922 3.631465158876827
H 4.968406114484045 10.216984652961028 3.9800088867583208
H 3.599952804646664 9.612747260248744 4.286224439340778
O 8.180072130039425 0.7926996797780235 -3.2496610290103045
H 7.921720587806721 -0.012719441860448488 -3.7224420311932365
H 8.1619800930495 0.5323189388777488 -2.3164748245120927
O -1.719848646500908 4.949773930182977 -8.401376835066484
H -1.8666829589178195 5.044903343769186 -9.354454710304283
H -2.5854727581747503 5.142438220730607 -8.010816580129235
O -6.10467799683391 -11.280354850358336 -2.6987089741158288
H -6.064703491642478 -11.670258630354526 -3.584905587841803
H -5.203918890265113 -11.383563730193657 -2.3567398185527555
O -1.184082371436675 5.915341614187946 -4.40649902597208
H -0.6920083726693431 5.755619464174093 -3.587158210784602
H -1.2425729084889905 5.040362143567855 -4.81875104521361
O -5.093878601560722 -5.031600849145179 5.653536920446886
H -4.836987386538115 -4.149033640766287 5.960211639389449
H -4.302401099166241 -5.570558035356138 5.802030889802416
O -2.9435411763146893 -6.730334070931702 8.294626376524521
H -3.3089454516374452 -5.835660690256686 8.365383809967184
H -2.1185676371164974 -6.607883237423911 7.80128430727028
O 10.782046011206116 3.870156009147883 7.48702749142215
H 10.703727288297697 3.919821299780554 8.45158277415527
H 10.807410474990949 2.9191449070808804 7.302917545948765
O 6.716598991853366 -0.14633680842170027 -0.9982151512624963
H 6.88344986852062 -0.016355867566658633 -0.05257616260466369
H 7.325705794805481 0.47105677772723586 -1.4303910491092062
O -7.938689762618513 8.763690909611093 -0.9579171608556116
H -8.429409835315347 9.002000012704723 -0.15706140696785634
H -7.902577940978241 9.588907456443446 -1.4645487148195429
O 9.584261983367789 6.123571096086955 -0.712794528546469
H 9.501436361250613 7.087483317557007 -0.6582005497431487
H 10.085413164835689 5.977577774606194 -1.5291862162162664
O -3.317344172279307 -10.659826237163031 5.372830471328164
H -3.042468660154695 -10.122992383548784 6.131263212807533
H -3.050330267429575 -10.133373253488006 4.604382181007622
O 2.7569883105947244 -0.3860935942386273 1.8718832183712202
H 3.1507505724011975 -0.4576257456420858 2.7543806911113093
H 1.8059175312786324 -0.3185925123374387 2.0447123853924425
O -0.9112431639070504 -10.478755380921555 -1.2917563032617019
H -1.464426115786849 -11.264824718330642 -1.4144387202365527
H -0.0674221582579424 -10.833647237774999 -0.9739830748983884
O 1.7483645419276828 6.57959947059122 -9.569185293363605
H 1.7793608899256679 7.426379215741487 -9.099110143505586
H 0.9472418755993894 6.641729217768603 -10.110761061202897
O -12.151049132087293 4.835637937426656 1.169620575673818
H -12.574846575352991 5.48618729142832 0.5898373213541745
H -12.244979411067483 3.998701160806742 0.6903754620505569
O 7.322543037843709 10.699002651196711 0.47081755475501397
H 8.07758608097952 10.981996086522951 -0.0665762258886311
H 7.43838036029679 9.740276717244358 0.5507440371878736
O 6.523919185043158 -0.0288339284325545 7.6754641428792265
H 6.623859802198415 -0.26181949380702463 8.610716491857707
H 6.69878358746552 0.9239600024904995 7.6516290791774875
C 1.1695586154865156 -12.655406438827054 -1.5744772667084561
O 2.093833523378011 -11.895217120725956 -1.5490538014223363
O 0.24528370759502072 -13.415595756928154 -1.5999007319945768