146

C -5.3564454929577465 1.0091607042253532 -0.0734429577464788
C -4.079135492957747 0.16955070422535368 -0.19788295774647868
C -4.333545492957747 -1.2789292957746463 0.3017270422535212
C -3.1403854929577464 -2.1745492957746464 0.7330270422535212
C -2.905235492957746 0.902300704225353 0.41966704225352136
C -2.7423854929577463 1.056130704225354 1.8024770422535212
C -1.8861754929577463 1.3499307042253532 -0.4326129577464788
C -1.5304554929577463 1.5279207042253526 2.3254170422535214
H -3.5237954929577464 0.7301007042253529 2.484817042253521
C -0.6776454929577462 1.8010507042253527 0.08546704225352131
H -1.9759254929577463 1.2426607042253535 -1.5115229577464788
C -0.4680254929577463 1.8513207042253539 1.4698070422535212
H -1.3950654929577464 1.5446707042253527 3.404047042253521
H 0.1461845070422536 1.9972507042253538 -0.6030529577464789
C -1.8679654929577463 -2.0866092957746467 -0.08765295774647863
C -0.6628654929577462 -1.814079295774647 0.5787970422535212
C -1.8438954929577462 -2.213429295774647 -1.4808029577464787
C 0.5129345070422537 -1.5763292957746469 -0.13022295774647863
H -0.6401854929577462 -1.7032692957746463 1.6609470422535213
C -0.6547954929577462 -1.9962392957746466 -2.1933129577464787
H -2.7578654929577464 -2.4351492957746466 -2.026182957746479
C 0.5308845070422537 -1.645769295774647 -1.5261029577464789
H 1.4044045070422537 -1.2610992957746463 0.41551704225352126
H -0.6795654929577464 -2.0467992957746466 -3.2793129577464786
C 1.7843245070422535 -1.2521692957746469 -2.2771629577464787
H 1.4981245070422535 -0.9384492957746469 -3.290282957746479
H 2.241984507042254 -0.38631929577464685 -1.8135029577464787
C 0.9385645070422537 2.0647807042253534 1.9815670422535212
H 1.0508945070422537 1.5807407042253532 2.9609770422535213
H 1.6053245070422537 1.5496207042253536 1.3096170422535214
C 3.9676945070422533 -1.6881692957746468 -3.314052957746479
H 4.795084507042254 -2.398849295774647 -3.4044129577464783
H 3.548404507042253 -1.4816192957746468 -4.303802957746479
H 4.307714507042253 -0.7637192957746466 -2.851282957746479
C 2.344694507042253 -3.565079295774647 -3.101282957746479
H 1.6334345070422536 -4.047909295774646 -2.4251929577464786
H 1.8561845070422536 -3.293109295774647 -4.041792957746479
H 3.1808045070422537 -4.243519295774647 -3.298122957746479
C 3.5156645070422536 -2.648489295774647 -1.1110629577464786
H 3.9311845070422535 -1.748249295774647 -0.6771029577464787
H 2.767184507042254 -3.1044092957746465 -0.45972295774647876
H 4.319224507042254 -3.371819295774647 -1.2863129577464787
C 2.963994507042253 3.381090704225353 2.401027042253521
H 3.3337945070422537 4.369820704225353 2.6912870422535216
H 3.120994507042253 2.671350704225353 3.2183370422535216
H 3.4665445070422534 3.0664207042253535 1.4881370422535212
C 1.2973745070422538 4.282440704225354 0.8488370422535213
H 1.7592145070422538 3.7367207042253527 0.02653704225352116
H 0.23311450704225378 4.4484607042253534 0.6605570422535213
H 1.7921845070422535 5.251370704225354 0.9736770422535213
C 0.7724845070422537 4.194670704225353 3.2772470422535216
H -0.2956954929577462 4.278220704225354 3.057857042253521
H 0.9298945070422537 3.612620704225354 4.190337042253521
H 1.2046345070422537 5.193640704225353 3.3918370422535213
N 2.876084507042253 -2.324759295774647 -2.4576629577464786
N 1.4527845070422536 3.504690704225353 2.1388470422535213
C -3.593905492957746 -3.637819295774647 0.8297870422535213
H -2.8952554929577463 -1.8680692957746468 1.7595270422535212
H -5.022615492957747 -1.2402792957746467 1.1579970422535213
H -4.898275492957747 -1.7933092957746464 -0.48931295774647876
H -3.883675492957746 0.07871070422535364 -1.2758929577464788
H -3.8751654929577466 -4.038529295774646 -0.1505529577464788
H -4.4603554929577465 -3.7321892957746465 1.4932570422535212
H -2.7953554929577464 -4.271929295774647 1.2313670422535212
H -5.648775492957746 1.147700704225353 0.9733970422535213
H -6.189795492957747 0.5254307042253537 -0.5943629577464788
H -5.2178854929577465 2.002970704225354 -0.5139729577464787
C 3.6710445070422537 1.0263707042253536 -0.27764295774647874
O 2.7356545070422538 1.6631507042253526 -0.7327029577464788
O 3.650814507042253 0.3883007042253537 0.7790570422535212
O 4.756604507042254 0.8696707042253538 -0.8334829577464786
O -8.672958495972244 -9.965828977188368 0.948169390983277
H -8.745321704634215 -10.06909107194431 -0.012594816675792542
H -7.809847503370024 -10.3516215205698 1.1606910892178233
O 8.479089021031628 -5.557681963896905 -0.4097346135650213
H 8.227073972700753 -6.447597723057947 -0.1207610612948935
H 8.050253723140695 -5.461822382532234 -1.2733741056237067
O 0.9583956817278985 -6.771804534756476 -3.3839000881696215
H -0.0002996924949993929 -6.809313723139103 -3.2480192685868152
H 1.0660376244808107 -6.154753191700064 -4.123239520698861
O 3.603943001116508 10.603976933701233 -1.4019153803652222
H 3.7004223491734614 10.954648191280215 -2.3000739194920747
H 3.0091709188252596 9.846522937364577 -1.5090207390573052
O -0.9066376659729425 -3.838973798373747 -5.050004143878379
H -1.0320283118467382 -4.693172305233603 -4.610016128466885
H -1.375426946166204 -3.938451425928123 -5.892205281785492
O -0.13569499193198212 0.6910122365903155 -4.06817462097167
H -1.0737637642507043 0.530626368788043 -4.250577221582951
H 0.09233034629160894 0.019946605103567716 -3.4073892491107993
O 11.136992863324831 6.015641622828028 2.3521827385220315
H 11.423871031360225 5.719854077644299 1.4751548018410834
H 10.331351876155106 5.503976806349747 2.5198242001907776
O -11.179932900022802 4.828700002416632 10.79438277168387
H -11.424844296330885 4.444275653049349 11.649487259142544
H -10.905938511520807 4.065172435423787 10.264368928646345
O 2.3122256133755625 1.024476630724055 3.967354475425945
H 2.681025913052264 0.7903684895716072 3.102399520469028
H 3.002144608455936 0.7615153629387558 4.594909330535867
O 0.20290279263984523 5.367153755989755 11.24497842220131
H -0.2398201136172018 6.203850635918445 11.03785016171301
H 1.1222797712752746 5.623844630307662 11.411764844002064
O -6.076665988872999 -7.889787510726212 5.480251479561767
H -6.764454221274042 -8.50752835748491 5.770614959559679
H -6.111500452226406 -7.176167452477936 6.1348467109289135
O -9.879862592718165 -4.324462404206221 3.8716081908867794
H -10.647500558040665 -3.820975166119749 4.181769297699981
H -9.233579617366553 -4.2305681000978845 4.58747418374206
O 4.625373741842645 -8.945891376222118 -2.5109556825277997
H 4.586982195629667 -8.673311208493962 -1.5818736095973893
H 3.7799651219550006 -9.396050868008354 -2.6579340539789285
O 0.33462350741382973 9.960060079189502 5.815149670761485
H -0.49549423175624785 9.482061510051972 5.961400359367157
H 1.015282276969867 9.35213481096823 6.140868033744839
O 4.680242988899683 2.431122527479917 9.669345123964593
H 5.100870783003457 2.7542503279207944 10.480287810169752
H 3.760138751488487 2.724101329739376 9.75017555155578
O -8.882557868808192 -6.047893507555909 0.9582711262894124
H -8.755411813358947 -6.436271934555061 0.07965662895547787
H -9.354913686908693 -6.735098163343311 1.4518212113575075
O -7.755262861019926 -0.9834606259988756 -2.9689747560210584
H -7.612028842396924 -1.9275596186957245 -3.1336819653286745
H -8.719521212950646 -0.888072669772042 -2.9772761317334013
O -7.462846469538947 5.971471096585963 -3.9498005402924186
H -8.34933335844073 5.580791617744707 -3.927939673027701
H -7.480935060008555 6.549546105547419 -4.7272733894704695
O -7.039806869419827 -4.882508174015159 -10.650001002581254
H -7.52803317808265 -4.393163388482584 -11.329076925657278
H -7.2169397277782545 -4.390568937148556 -9.834169106893865
O 3.109948208001141 -4.6701488759992715 -7.9146575166211255
H 3.225942118648041 -5.436672560362266 -8.495995809617055
H 3.3588403413651124 -5.001033092392277 -7.038569458494822
O -7.9926597301920115 -3.546558851445924 7.9891379877991096
H -8.16054835180972 -3.4280769987941637 8.936103044294603
H -7.122471563230297 -3.9716563183767404 7.9570967333165905
O -1.15757442082601 -11.007669004338247 -4.290491218245518
H -1.362086191014519 -11.64820602808579 -3.5927415396622844
H -1.3349389473728877 -10.148561674026533 -3.8788623028040985
O -2.202550443133162 -6.438009221281895 -2.326697451913125
H -2.7726069960186046 -5.962121514462954 -1.7041753447466588
H -1.345119356585551 -5.993998339382468 -2.2452836147803894
O -5.725236602658788 -10.030960284803134 4.1834601530728435
H -5.805307446480564 -10.966776581981993 4.421795787848939
H -6.5652035241029205 -9.643298800599078 4.471793447793335
C -6.791013026989698 -0.5472744939237941 7.520625545284203
O -6.147477393267716 -1.139286089621336 6.703189054791089
O -7.4345486607116795 0.044737101773747234 8.338062035777316