146

C -5.3564454929577465 1.0091607042253532 -0.0734429577464788
C -4.079135492957747 0.16955070422535368 -0.19788295774647868
C -4.333545492957747 -1.2789292957746463 0.3017270422535212
C -3.1403854929577464 -2.1745492957746464 0.7330270422535212
C -2.905235492957746 0.902300704225353 0.41966704225352136
C -2.7423854929577463 1.056130704225354 1.8024770422535212
C -1.8861754929577463 1.3499307042253532 -0.4326129577464788
C -1.5304554929577463 1.5279207042253526 2.3254170422535214
H -3.5237954929577464 0.7301007042253529 2.484817042253521
C -0.6776454929577462 1.8010507042253527 0.08546704225352131
H -1.9759254929577463 1.2426607042253535 -1.5115229577464788
C -0.4680254929577463 1.8513207042253539 1.4698070422535212
H -1.3950654929577464 1.5446707042253527 3.404047042253521
H 0.1461845070422536 1.9972507042253538 -0.6030529577464789
C -1.8679654929577463 -2.0866092957746467 -0.08765295774647863
C -0.6628654929577462 -1.814079295774647 0.5787970422535212
C -1.8438954929577462 -2.213429295774647 -1.4808029577464787
C 0.5129345070422537 -1.5763292957746469 -0.13022295774647863
H -0.6401854929577462 -1.7032692957746463 1.6609470422535213
C -0.6547954929577462 -1.9962392957746466 -2.1933129577464787
H -2.7578654929577464 -2.4351492957746466 -2.026182957746479
C 0.5308845070422537 -1.645769295774647 -1.5261029577464789
H 1.4044045070422537 -1.2610992957746463 0.41551704225352126
H -0.6795654929577464 -2.0467992957746466 -3.2793129577464786
C 1.7843245070422535 -1.2521692957746469 -2.2771629577464787
H 1.4981245070422535 -0.9384492957746469 -3.290282957746479
H 2.241984507042254 -0.38631929577464685 -1.8135029577464787
C 0.9385645070422537 2.0647807042253534 1.9815670422535212
H 1.0508945070422537 1.5807407042253532 2.9609770422535213
H 1.6053245070422537 1.5496207042253536 1.3096170422535214
C 3.9676945070422533 -1.6881692957746468 -3.314052957746479
H 4.795084507042254 -2.398849295774647 -3.4044129577464783
H 3.548404507042253 -1.4816192957746468 -4.303802957746479
H 4.307714507042253 -0.7637192957746466 -2.851282957746479
C 2.344694507042253 -3.565079295774647 -3.101282957746479
H 1.6334345070422536 -4.047909295774646 -2.4251929577464786
H 1.8561845070422536 -3.293109295774647 -4.041792957746479
H 3.1808045070422537 -4.243519295774647 -3.298122957746479
C 3.5156645070422536 -2.648489295774647 -1.1110629577464786
H 3.9311845070422535 -1.748249295774647 -0.6771029577464787
H 2.767184507042254 -3.1044092957746465 -0.45972295774647876
H 4.319224507042254 -3.371819295774647 -1.2863129577464787
C 2.963994507042253 3.381090704225353 2.401027042253521
H 3.3337945070422537 4.369820704225353 2.6912870422535216
H 3.120994507042253 2.671350704225353 3.2183370422535216
H 3.4665445070422534 3.0664207042253535 1.4881370422535212
C 1.2973745070422538 4.282440704225354 0.8488370422535213
H 1.7592145070422538 3.7367207042253527 0.02653704225352116
H 0.23311450704225378 4.4484607042253534 0.6605570422535213
H 1.7921845070422535 5.251370704225354 0.9736770422535213
C 0.7724845070422537 4.194670704225353 3.2772470422535216
H -0.2956954929577462 4.278220704225354 3.057857042253521
H 0.9298945070422537 3.612620704225354 4.190337042253521
H 1.2046345070422537 5.193640704225353 3.3918370422535213
N 2.876084507042253 -2.324759295774647 -2.4576629577464786
N 1.4527845070422536 3.504690704225353 2.1388470422535213
C -3.593905492957746 -3.637819295774647 0.8297870422535213
H -2.8952554929577463 -1.8680692957746468 1.7595270422535212
H -5.022615492957747 -1.2402792957746467 1.1579970422535213
H -4.898275492957747 -1.7933092957746464 -0.48931295774647876
H -3.883675492957746 0.07871070422535364 -1.2758929577464788
H -3.8751654929577466 -4.038529295774646 -0.1505529577464788
H -4.4603554929577465 -3.7321892957746465 1.4932570422535212
H -2.7953554929577464 -4.271929295774647 1.2313670422535212
H -5.648775492957746 1.147700704225353 0.9733970422535213
H -6.189795492957747 0.5254307042253537 -0.5943629577464788
H -5.2178854929577465 2.002970704225354 -0.5139729577464787
C 3.6710445070422537 1.0263707042253536 -0.27764295774647874
O 2.7356545070422538 1.6631507042253526 -0.7327029577464788
O 3.650814507042253 0.3883007042253537 0.7790570422535212
O 4.756604507042254 0.8696707042253538 -0.8334829577464786
O 3.1266532019025863 11.755363985223948 1.1306858076398951
H 2.229747542841141 11.96950484284385 0.8329085607902273
H 3.1963410035958058 10.798536225174809 0.9943546219393653
O -3.2245441086074598 4.471684379715603 -11.103866381622112
H -4.029602114390929 4.748875517575656 -11.566482893774232
H -2.6971862099019077 4.037781943539653 -11.791314028249433
O -12.011529664194178 -1.4897057911381104 5.500897973028673
H -11.425268236259079 -2.1459640932064046 5.095201120709192
H -11.495175310977935 -0.670004634172499 5.480158168693235
O -2.0987380704163594 6.853218251155933 -0.5843032897426352
H -1.7172916147746333 6.566750367219972 0.2591432763489094
H -2.328527306701018 6.024463042464277 -1.030760068450454
O -1.63583918970609 1.326331577358364 -7.1039940437062254
H -2.1763340911285685 0.5570010915249008 -6.869551679779496
H -1.1623545564340672 1.0454834662117896 -7.901426539169422
O 4.061728812406722 -7.515257678420509 7.188195446110663
H 4.986099908717059 -7.7337949538092685 7.379890236002521
H 3.791063565228471 -8.187005859254626 6.544412369433442
O -3.556836624608024 -5.51720320052965 4.101165157855823
H -3.9682706880201897 -5.453894475348535 4.976197370794351
H -2.6064657403746185 -5.476882145101812 4.285911847110595
O 9.020856140421955 0.7733295850742459 -5.2379965475851975
H 9.731640719502945 0.3912070843425659 -4.7015871577762285
H 9.466369628571307 1.0533584720913525 -6.051669392537613
O -12.767131753708426 2.2538595269185526 6.961599183041287
H -13.229134740978278 3.0941958520340043 6.8224752909695265
H -12.30859207495083 2.375935591703562 7.80646647540825
O 1.175544222066958 -11.449845356444518 2.803406909812108
H 1.4571066225612734 -12.000503162938115 2.057440455019708
H 0.3259312283389073 -11.083068154851889 2.5160148612437148
O 7.744231613347001 1.1333274130993816 6.11866899044389
H 7.690773998249709 0.1686433738843488 6.19279283796869
H 8.312377257782607 1.277663374957164 5.347086460105469
O 14.317979823510749 -0.3278102423766107 3.0734742018072705
H 14.701463454852082 -0.6868953197630359 3.8877011778966475
H 13.361829143949961 -0.3858091544933182 3.2196725207740853
O 7.394152429149866 5.61688674490463 8.565633357004453
H 6.791648740105896 6.363293009310137 8.702871653571492
H 7.979099524969219 5.9161500774443265 7.8534253135299785
O 4.065539922303804 7.934182045710375 -7.134841066164158
H 3.926447332300363 7.837015052896365 -6.180807951532587
H 3.3930665586302147 7.358682170581181 -7.529228455891326
O -0.5557509345135077 5.600593964844292 -8.297221350811999
H -0.7643930550867566 6.544931472618801 -8.236702809579349
H -1.3666502061195134 5.203827332410853 -8.649330076912722
O -9.485346129112589 -4.880642102327355 2.1775565172826754
H -8.616324166715362 -5.173748526050397 2.4903772489223193
H -9.530287350360833 -3.9512817254993537 2.448169748509145
O 7.665776887655314 -1.7738678964954064 4.201245739694733
H 7.08517632868714 -2.0370239241498225 3.471438057537994
H 7.574290965719873 -0.8098659021591157 4.237196056845994
O 7.930020220271514 7.628358616709052 1.2962603864381754
H 8.511718029422875 6.8619757026540515 1.1811419918477628
H 7.268091026543201 7.325787675035033 1.93599666963984
O -10.523486201274057 -7.138893425046582 4.779533821020619
H -10.197419723929702 -6.277247810694972 5.079891681781546
H -10.593546050894588 -7.040457599195083 3.818095341470274
O -3.801834330413243 -4.770437063598785 -7.89836582003037
H -4.318012588899254 -4.7781421469940275 -8.718407278772684
H -3.4215051018315474 -3.879661076562644 -7.869560211093224
O -2.8507143027286963 -9.036630678824768 4.758141469507179
H -1.90749415299576 -9.041099992358921 4.536143426105187
H -3.205424801807222 -9.806235380701692 4.288193590490374
O 8.223431728838435 -3.9253075238428528 4.754184226089915
H 8.249104580349163 -4.7061779353838435 5.327376743465285
H 8.941185676835103 -4.07611788859299 4.120901154849946
O 9.623472700105143 7.962077025430871 2.565072250474591
H 9.926933381292667 8.239403707271302 3.4425509587134764
H 9.546561449984308 6.998862102128813 2.637623028782329
O 12.139188510836192 -3.9795169313453673 -6.8569830710056205
H 12.446561205318734 -4.749392770798812 -7.358760487209655
H 11.204273862718964 -3.9003663996468623 -7.099122985864125
C 1.2881937668728822 -10.105809980277506 1.1643967333792276
O 1.7776689724133012 -10.91290618840072 1.9004863959165386
O 0.7987185613324623 -9.298713772154292 0.42830707084191566