146

C -5.3564454929577465 1.0091607042253532 -0.0734429577464788
C -4.079135492957747 0.16955070422535368 -0.19788295774647868
C -4.333545492957747 -1.2789292957746463 0.3017270422535212
C -3.1403854929577464 -2.1745492957746464 0.7330270422535212
C -2.905235492957746 0.902300704225353 0.41966704225352136
C -2.7423854929577463 1.056130704225354 1.8024770422535212
C -1.8861754929577463 1.3499307042253532 -0.4326129577464788
C -1.5304554929577463 1.5279207042253526 2.3254170422535214
H -3.5237954929577464 0.7301007042253529 2.484817042253521
C -0.6776454929577462 1.8010507042253527 0.08546704225352131
H -1.9759254929577463 1.2426607042253535 -1.5115229577464788
C -0.4680254929577463 1.8513207042253539 1.4698070422535212
H -1.3950654929577464 1.5446707042253527 3.404047042253521
H 0.1461845070422536 1.9972507042253538 -0.6030529577464789
C -1.8679654929577463 -2.0866092957746467 -0.08765295774647863
C -0.6628654929577462 -1.814079295774647 0.5787970422535212
C -1.8438954929577462 -2.213429295774647 -1.4808029577464787
C 0.5129345070422537 -1.5763292957746469 -0.13022295774647863
H -0.6401854929577462 -1.7032692957746463 1.6609470422535213
C -0.6547954929577462 -1.9962392957746466 -2.1933129577464787
H -2.7578654929577464 -2.4351492957746466 -2.026182957746479
C 0.5308845070422537 -1.645769295774647 -1.5261029577464789
H 1.4044045070422537 -1.2610992957746463 0.41551704225352126
H -0.6795654929577464 -2.0467992957746466 -3.2793129577464786
C 1.7843245070422535 -1.2521692957746469 -2.2771629577464787
H 1.4981245070422535 -0.9384492957746469 -3.290282957746479
H 2.241984507042254 -0.38631929577464685 -1.8135029577464787
C 0.9385645070422537 2.0647807042253534 1.9815670422535212
H 1.0508945070422537 1.5807407042253532 2.9609770422535213
H 1.6053245070422537 1.5496207042253536 1.3096170422535214
C 3.9676945070422533 -1.6881692957746468 -3.314052957746479
H 4.795084507042254 -2.398849295774647 -3.4044129577464783
H 3.548404507042253 -1.4816192957746468 -4.303802957746479
H 4.307714507042253 -0.7637192957746466 -2.851282957746479
C 2.344694507042253 -3.565079295774647 -3.101282957746479
H 1.6334345070422536 -4.047909295774646 -2.4251929577464786
H 1.8561845070422536 -3.293109295774647 -4.041792957746479
H 3.1808045070422537 -4.243519295774647 -3.298122957746479
C 3.5156645070422536 -2.648489295774647 -1.1110629577464786
H 3.9311845070422535 -1.748249295774647 -0.6771029577464787
H 2.767184507042254 -3.1044092957746465 -0.45972295774647876
H 4.319224507042254 -3.371819295774647 -1.2863129577464787
C 2.963994507042253 3.381090704225353 2.401027042253521
H 3.3337945070422537 4.369820704225353 2.6912870422535216
H 3.120994507042253 2.671350704225353 3.2183370422535216
H 3.4665445070422534 3.0664207042253535 1.4881370422535212
C 1.2973745070422538 4.282440704225354 0.8488370422535213
H 1.7592145070422538 3.7367207042253527 0.02653704225352116
H 0.23311450704225378 4.4484607042253534 0.6605570422535213
H 1.7921845070422535 5.251370704225354 0.9736770422535213
C 0.7724845070422537 4.194670704225353 3.2772470422535216
H -0.2956954929577462 4.278220704225354 3.057857042253521
H 0.9298945070422537 3.612620704225354 4.190337042253521
H 1.2046345070422537 5.193640704225353 3.3918370422535213
N 2.876084507042253 -2.324759295774647 -2.4576629577464786
N 1.4527845070422536 3.504690704225353 2.1388470422535213
C -3.593905492957746 -3.637819295774647 0.8297870422535213
H -2.8952554929577463 -1.8680692957746468 1.7595270422535212
H -5.022615492957747 -1.2402792957746467 1.1579970422535213
H -4.898275492957747 -1.7933092957746464 -0.48931295774647876
H -3.883675492957746 0.07871070422535364 -1.2758929577464788
H -3.8751654929577466 -4.038529295774646 -0.1505529577464788
H -4.4603554929577465 -3.7321892957746465 1.4932570422535212
H -2.7953554929577464 -4.271929295774647 1.2313670422535212
H -5.648775492957746 1.147700704225353 0.9733970422535213
H -6.189795492957747 0.5254307042253537 -0.5943629577464788
H -5.2178854929577465 2.002970704225354 -0.5139729577464787
C 3.6710445070422537 1.0263707042253536 -0.27764295774647874
O 2.7356545070422538 1.6631507042253526 -0.7327029577464788
O 3.650814507042253 0.3883007042253537 0.7790570422535212
O 4.756604507042254 0.8696707042253538 -0.8334829577464786
O 12.720228105352195 1.4758099280243693 -4.535337552267919
H 11.994053733777118 0.9764612184391819 -4.9381886478394135
H 12.330108453801778 2.341529270765469 -4.3422090422594355
O -7.217527597651752 0.08411677015920604 4.840893022273281
H -7.51093328529665 -0.3804046271230317 4.042707372925598
H -7.830106195935481 0.8312135513690033 4.915430293022221
O 8.410661152276038 0.3184176633176123 -2.2580653534290747
H 8.836055547266621 -0.5388814141763084 -2.40987199800918
H 8.1498712965092 0.28839849824039215 -1.3253009431103828
O -4.752505398430163 2.899228760503028 -11.488716212462844
H -4.889565482526749 3.5475455092215507 -12.19572914273957
H -5.58760990816104 2.908733857614078 -10.997318150545562
O 2.7691682187881783 -3.9299439998086068 -5.933643351010364
H 2.227540212642677 -3.1312969487280826 -5.845499447878991
H 3.1134349406284927 -4.079056704022467 -5.040218608810243
O -7.318847393498634 1.5752273537161317 -5.322312126377956
H -7.386714502648731 1.6205503643838703 -4.356751544591591
H -8.23299635175892 1.4430164790179651 -5.615252241458114
O -1.5765662814375432 7.340302622609047 -1.4406341309326
H -1.803119326432256 7.476047650372804 -0.5083174668419911
H -0.6879316316320242 7.717817888190886 -1.5229301072479393
O -1.1248983481701678 2.935633970968336 7.0590411881259225
H -0.9463748894813125 2.1083218275678903 6.58718172919781
H -2.0339577503804107 3.157278673635738 6.8071551556972985
O -13.950761630461372 1.3548100738984976 -2.911447042285582
H -14.424989041924054 1.9343531346786085 -3.526431237057307
H -13.139581670514266 1.8439369172786648 -2.7072315973134478
O 0.5047878885301449 10.427959409674902 -8.558016208394942
H 1.0335740206577118 9.752555488010142 -9.008773488945607
H 1.1606116192219087 10.960371042740903 -8.083258342175188
O 0.2950334119353175 0.08236442144822909 9.432323552504307
H 0.3875487230924488 -0.8690551180674395 9.591097397734853
H 0.3637283379652856 0.1667429260369533 8.46945117290195
O 0.8953472184335913 -4.145722057039336 -9.608068732487133
H 0.6763046803340549 -3.350191412548523 -10.116122585025373
H 0.9521288469757048 -4.843225469640974 -10.278312554069378
O 7.704071304106847 4.951569893303771 -2.6832620569443026
H 8.073877237015568 4.8538078626711485 -1.7929511481870866
H 7.262189601829758 5.813632680508505 -2.65980451211316
O 5.5399835922683724 -0.3828921973892745 11.70363206038056
H 5.587511929958067 -1.3097259461862045 11.982357043307253
H 4.732633867455046 -0.052672021883082065 12.125654573799583
O -7.925244427956611 -4.814932314064303 -7.542245850194374
H -7.81655606226139 -5.09983869740751 -6.622472753831582
H -8.334609730659764 -5.57814046022686 -7.976866741171635
O -1.578601047712824 3.156021549989143 -9.3623217275758
H -1.5010030139654453 3.8349185865065274 -10.04937683152777
H -0.9126059501631643 3.410104978655438 -8.705926964024933
O 1.9977929657364157 6.171169986145382 -5.590466672426274
H 1.7136511468891529 5.50854746218403 -6.237894023116109
H 1.1851347284463745 6.654255467022162 -5.377917967817915
O -1.0202842770349538 -8.346560377776607 -4.133879211222398
H -1.6291278276245778 -8.191708280530001 -3.396113858428064
H -0.5660497068053981 -9.168194742676162 -3.893983671613027
O 4.248040582601416 -7.282778313218546 -4.323912118081514
H 4.025629195840754 -7.324004753901782 -5.266143996404356
H 4.021658675890018 -6.37560297746393 -4.069459594391509
O -6.843168105561022 4.545288015552202 7.699377455682441
H -6.494691733094175 5.112256948085932 6.995049546059434
H -6.0674128722905545 4.05507483724655 8.010595710559873
O 3.042508401092108 -2.0707838136204355 2.13974429128901
H 3.3941412849031076 -2.781951360725044 2.6961276050826357
H 2.113805887228008 -2.314007979422532 2.0081555751604063
O 2.2352863341709206 -7.933468103261752 -7.76802375757002
H 2.848406406033988 -8.432061462055124 -8.328787341396371
H 2.061822828889427 -8.529091121712243 -7.023641076063137
O 0.9979406994935087 8.91155879477262 -0.1451382570068882
H 1.0573433405199655 8.679487599837836 -1.0840640493997824
H 1.9035122916346956 9.162096691056806 0.09178535585677228
O -0.5656079782361751 1.426528592720261 -7.859614509316286
H -1.208178359228405 1.789888223737713 -7.231888103213784
H 0.24731333931529775 1.920402986354123 -7.674657868226648
C 8.435795006136964 -2.126702489281488 -4.6636155764182385
O 8.730864399349418 -2.0276174943939336 -5.819441893075446
O 8.140725612924507 -2.225787484169042 -3.5077892597610325