146

C -5.3564454929577465 1.0091607042253532 -0.0734429577464788
C -4.079135492957747 0.16955070422535368 -0.19788295774647868
C -4.333545492957747 -1.2789292957746463 0.3017270422535212
C -3.1403854929577464 -2.1745492957746464 0.7330270422535212
C -2.905235492957746 0.902300704225353 0.41966704225352136
C -2.7423854929577463 1.056130704225354 1.8024770422535212
C -1.8861754929577463 1.3499307042253532 -0.4326129577464788
C -1.5304554929577463 1.5279207042253526 2.3254170422535214
H -3.5237954929577464 0.7301007042253529 2.484817042253521
C -0.6776454929577462 1.8010507042253527 0.08546704225352131
H -1.9759254929577463 1.2426607042253535 -1.5115229577464788
C -0.4680254929577463 1.8513207042253539 1.4698070422535212
H -1.3950654929577464 1.5446707042253527 3.404047042253521
H 0.1461845070422536 1.9972507042253538 -0.6030529577464789
C -1.8679654929577463 -2.0866092957746467 -0.08765295774647863
C -0.6628654929577462 -1.814079295774647 0.5787970422535212
C -1.8438954929577462 -2.213429295774647 -1.4808029577464787
C 0.5129345070422537 -1.5763292957746469 -0.13022295774647863
H -0.6401854929577462 -1.7032692957746463 1.6609470422535213
C -0.6547954929577462 -1.9962392957746466 -2.1933129577464787
H -2.7578654929577464 -2.4351492957746466 -2.026182957746479
C 0.5308845070422537 -1.645769295774647 -1.5261029577464789
H 1.4044045070422537 -1.2610992957746463 0.41551704225352126
H -0.6795654929577464 -2.0467992957746466 -3.2793129577464786
C 1.7843245070422535 -1.2521692957746469 -2.2771629577464787
H 1.4981245070422535 -0.9384492957746469 -3.290282957746479
H 2.241984507042254 -0.38631929577464685 -1.8135029577464787
C 0.9385645070422537 2.0647807042253534 1.9815670422535212
H 1.0508945070422537 1.5807407042253532 2.9609770422535213
H 1.6053245070422537 1.5496207042253536 1.3096170422535214
C 3.9676945070422533 -1.6881692957746468 -3.314052957746479
H 4.795084507042254 -2.398849295774647 -3.4044129577464783
H 3.548404507042253 -1.4816192957746468 -4.303802957746479
H 4.307714507042253 -0.7637192957746466 -2.851282957746479
C 2.344694507042253 -3.565079295774647 -3.101282957746479
H 1.6334345070422536 -4.047909295774646 -2.4251929577464786
H 1.8561845070422536 -3.293109295774647 -4.041792957746479
H 3.1808045070422537 -4.243519295774647 -3.298122957746479
C 3.5156645070422536 -2.648489295774647 -1.1110629577464786
H 3.9311845070422535 -1.748249295774647 -0.6771029577464787
H 2.767184507042254 -3.1044092957746465 -0.45972295774647876
H 4.319224507042254 -3.371819295774647 -1.2863129577464787
C 2.963994507042253 3.381090704225353 2.401027042253521
H 3.3337945070422537 4.369820704225353 2.6912870422535216
H 3.120994507042253 2.671350704225353 3.2183370422535216
H 3.4665445070422534 3.0664207042253535 1.4881370422535212
C 1.2973745070422538 4.282440704225354 0.8488370422535213
H 1.7592145070422538 3.7367207042253527 0.02653704225352116
H 0.23311450704225378 4.4484607042253534 0.6605570422535213
H 1.7921845070422535 5.251370704225354 0.9736770422535213
C 0.7724845070422537 4.194670704225353 3.2772470422535216
H -0.2956954929577462 4.278220704225354 3.057857042253521
H 0.9298945070422537 3.612620704225354 4.190337042253521
H 1.2046345070422537 5.193640704225353 3.3918370422535213
N 2.876084507042253 -2.324759295774647 -2.4576629577464786
N 1.4527845070422536 3.504690704225353 2.1388470422535213
C -3.593905492957746 -3.637819295774647 0.8297870422535213
H -2.8952554929577463 -1.8680692957746468 1.7595270422535212
H -5.022615492957747 -1.2402792957746467 1.1579970422535213
H -4.898275492957747 -1.7933092957746464 -0.48931295774647876
H -3.883675492957746 0.07871070422535364 -1.2758929577464788
H -3.8751654929577466 -4.038529295774646 -0.1505529577464788
H -4.4603554929577465 -3.7321892957746465 1.4932570422535212
H -2.7953554929577464 -4.271929295774647 1.2313670422535212
H -5.648775492957746 1.147700704225353 0.9733970422535213
H -6.189795492957747 0.5254307042253537 -0.5943629577464788
H -5.2178854929577465 2.002970704225354 -0.5139729577464787
C 3.6710445070422537 1.0263707042253536 -0.27764295774647874
O 2.7356545070422538 1.6631507042253526 -0.7327029577464788
O 3.650814507042253 0.3883007042253537 0.7790570422535212
O 4.756604507042254 0.8696707042253538 -0.8334829577464786
O -10.627586031417593 9.597857722948554 3.8971201703579634
H -10.604102960831508 9.561804774591186 4.865167734897326
H -10.166354912940577 8.791432715870643 3.621608813772015
O 6.339417818921873 5.483300306861887 7.245865464552001
H 5.4817337692761505 5.804483966650006 7.5623879512230525
H 6.287765199935141 5.587279242583782 6.283845541588887
O 9.17663671331118 -1.88733812914297 -1.399165044548682
H 9.108698007076391 -2.516168131211699 -0.665050259522943
H 8.461643770492584 -1.2548953619038186 -1.2325421704092365
O 6.394753322089423 -0.0012762851504773964 -4.778129034165981
H 7.162886065641105 0.14649856742625417 -5.350057384686999
H 5.910148800934807 0.8369951795926807 -4.815829879963713
O -7.3194338540270225 -1.7016049222542016 -11.512619604918648
H -7.464539003139307 -1.2730066506944828 -12.369483289653346
H -6.631476920466446 -1.1622002993011549 -11.094624563557137
O -0.2264713824947977 -7.7541959890781715 -14.961396505132623
H -0.8837717375643726 -7.832754694944574 -15.669034922587473
H -0.0007155565949172882 -6.811880847616364 -14.955197671042741
O 6.818385257940083 6.922705096094898 -3.539277998901219
H 6.732382774447452 6.727351108175629 -4.484480489977675
H 6.10370405855636 6.412977462546111 -3.128948293488365
O 4.555716710833104 -11.415586611863162 -1.8525462907854706
H 5.341524693655096 -11.778703054226966 -1.417092940450111
H 4.812328737682481 -11.353752546369751 -2.7849028536522793
O -2.2600663715233953 -0.07340854944077392 -5.941004706520663
H -1.4265642144729207 -0.44476514167847514 -5.614913013137023
H -1.996886304443597 0.45067531548613726 -6.7123893700414925
O -3.6202908044255264 -5.058869955395773 -6.050066595140141
H -3.6627897132233 -5.056849802414972 -5.0819978379576085
H -3.3324301934465153 -5.957646273983895 -6.269837708100814
O 3.3911884205838123 1.8706691153567028 -6.870114547711081
H 3.9669131544264857 2.090622502404672 -6.122365328207705
H 3.9454026828248834 1.3123972855560135 -7.435924639419928
O -9.816520943042947 3.835404213757092 1.6465644209388084
H -10.6051006903801 3.602053031342209 2.1590647279194504
H -9.295926572586662 4.382170875220152 2.254009614896058
O 2.1212309724655496 -5.095409573879589 -10.056209782600808
H 1.4597299216378699 -4.499532856373394 -10.43872076830961
H 2.213307437165976 -4.787081835492472 -9.142197816218882
O -9.834179983632906 1.5234555995831274 -7.285272674698335
H -10.301470993125603 2.3022167998915726 -6.947430311692388
H -9.355071260329318 1.1850939196402308 -6.513956819097902
O -4.400763502157016 2.2997239312047753 5.29993226830249
H -5.362815547906529 2.3630768613392634 5.396935486870496
H -4.101162940071379 3.2206973193250996 5.331704360964775
O 3.860912487355169 -7.778961758281261 0.9774184693729927
H 4.057150454529765 -7.831165708979194 0.02993086276765522
H 3.5640468097273366 -8.672962807342326 1.2045634407553303
O 6.623530561317498 -4.1539087571575894 -10.894534324468115
H 6.644770441394653 -4.1918433203574 -11.862561799961009
H 6.83381905037186 -5.059146426016356 -10.620152367061328
O 5.088036084801189 -3.5351993725524107 -7.119463475047146
H 5.437687997084019 -4.390731163761177 -6.828299858899658
H 4.14853250379865 -3.7090279495971004 -7.280952147671648
O 0.9897778363359997 5.449325078819703 5.68540836181892
H 0.6552241152552845 6.239749594559904 6.135153011067711
H 0.300116094453192 5.238793284736611 5.038102414245962
O -11.261259474099536 -0.1168869807849447 -1.1902724734645709
H -10.770325822453401 -0.37700912359407085 -0.39636569215975115
H -12.149421349490328 -0.47582057336899636 -1.0443372017958712
O -2.229921059832512 -8.492578550442339 0.11459544052363224
H -2.058685521488588 -9.445832289068127 0.14546706348100047
H -2.337058744638067 -8.304487453956204 -0.8299177675455554
O -2.254766142669132 6.668272613954979 7.010253409522641
H -2.1313360416630496 7.581242423758693 6.709889474516124
H -1.3525904277261414 6.3450956154896065 7.15377187986711
O 2.281485328567157 -10.894058313035895 -0.3021326598874672
H 1.505845047558691 -11.469508110147007 -0.2233478746691966
H 2.0274579549851057 -10.250397097697055 -0.9804631675601887
O 7.990989262791256 -0.010141387297325721 4.361850952369066
H 8.09748542061174 -0.8374238990792158 3.8686678515136927
H 7.747212241779364 0.6371817920283149 3.683243989662146
C -12.795862003852342 2.7765305914528877 -4.937913190191023
O -12.856842609031517 2.9102023758417577 -6.125865831145315
O -12.734881398673169 2.6428588070640178 -3.7499605492367305