146

C -5.3564454929577465 1.0091607042253532 -0.0734429577464788
C -4.079135492957747 0.16955070422535368 -0.19788295774647868
C -4.333545492957747 -1.2789292957746463 0.3017270422535212
C -3.1403854929577464 -2.1745492957746464 0.7330270422535212
C -2.905235492957746 0.902300704225353 0.41966704225352136
C -2.7423854929577463 1.056130704225354 1.8024770422535212
C -1.8861754929577463 1.3499307042253532 -0.4326129577464788
C -1.5304554929577463 1.5279207042253526 2.3254170422535214
H -3.5237954929577464 0.7301007042253529 2.484817042253521
C -0.6776454929577462 1.8010507042253527 0.08546704225352131
H -1.9759254929577463 1.2426607042253535 -1.5115229577464788
C -0.4680254929577463 1.8513207042253539 1.4698070422535212
H -1.3950654929577464 1.5446707042253527 3.404047042253521
H 0.1461845070422536 1.9972507042253538 -0.6030529577464789
C -1.8679654929577463 -2.0866092957746467 -0.08765295774647863
C -0.6628654929577462 -1.814079295774647 0.5787970422535212
C -1.8438954929577462 -2.213429295774647 -1.4808029577464787
C 0.5129345070422537 -1.5763292957746469 -0.13022295774647863
H -0.6401854929577462 -1.7032692957746463 1.6609470422535213
C -0.6547954929577462 -1.9962392957746466 -2.1933129577464787
H -2.7578654929577464 -2.4351492957746466 -2.026182957746479
C 0.5308845070422537 -1.645769295774647 -1.5261029577464789
H 1.4044045070422537 -1.2610992957746463 0.41551704225352126
H -0.6795654929577464 -2.0467992957746466 -3.2793129577464786
C 1.7843245070422535 -1.2521692957746469 -2.2771629577464787
H 1.4981245070422535 -0.9384492957746469 -3.290282957746479
H 2.241984507042254 -0.38631929577464685 -1.8135029577464787
C 0.9385645070422537 2.0647807042253534 1.9815670422535212
H 1.0508945070422537 1.5807407042253532 2.9609770422535213
H 1.6053245070422537 1.5496207042253536 1.3096170422535214
C 3.9676945070422533 -1.6881692957746468 -3.314052957746479
H 4.795084507042254 -2.398849295774647 -3.4044129577464783
H 3.548404507042253 -1.4816192957746468 -4.303802957746479
H 4.307714507042253 -0.7637192957746466 -2.851282957746479
C 2.344694507042253 -3.565079295774647 -3.101282957746479
H 1.6334345070422536 -4.047909295774646 -2.4251929577464786
H 1.8561845070422536 -3.293109295774647 -4.041792957746479
H 3.1808045070422537 -4.243519295774647 -3.298122957746479
C 3.5156645070422536 -2.648489295774647 -1.1110629577464786
H 3.9311845070422535 -1.748249295774647 -0.6771029577464787
H 2.767184507042254 -3.1044092957746465 -0.45972295774647876
H 4.319224507042254 -3.371819295774647 -1.2863129577464787
C 2.963994507042253 3.381090704225353 2.401027042253521
H 3.3337945070422537 4.369820704225353 2.6912870422535216
H 3.120994507042253 2.671350704225353 3.2183370422535216
H 3.4665445070422534 3.0664207042253535 1.4881370422535212
C 1.2973745070422538 4.282440704225354 0.8488370422535213
H 1.7592145070422538 3.7367207042253527 0.02653704225352116
H 0.23311450704225378 4.4484607042253534 0.6605570422535213
H 1.7921845070422535 5.251370704225354 0.9736770422535213
C 0.7724845070422537 4.194670704225353 3.2772470422535216
H -0.2956954929577462 4.278220704225354 3.057857042253521
H 0.9298945070422537 3.612620704225354 4.190337042253521
H 1.2046345070422537 5.193640704225353 3.3918370422535213
N 2.876084507042253 -2.324759295774647 -2.4576629577464786
N 1.4527845070422536 3.504690704225353 2.1388470422535213
C -3.593905492957746 -3.637819295774647 0.8297870422535213
H -2.8952554929577463 -1.8680692957746468 1.7595270422535212
H -5.022615492957747 -1.2402792957746467 1.1579970422535213
H -4.898275492957747 -1.7933092957746464 -0.48931295774647876
H -3.883675492957746 0.07871070422535364 -1.2758929577464788
H -3.8751654929577466 -4.038529295774646 -0.1505529577464788
H -4.4603554929577465 -3.7321892957746465 1.4932570422535212
H -2.7953554929577464 -4.271929295774647 1.2313670422535212
H -5.648775492957746 1.147700704225353 0.9733970422535213
H -6.189795492957747 0.5254307042253537 -0.5943629577464788
H -5.2178854929577465 2.002970704225354 -0.5139729577464787
C 3.6710445070422537 1.0263707042253536 -0.27764295774647874
O 2.7356545070422538 1.6631507042253526 -0.7327029577464788
O 3.650814507042253 0.3883007042253537 0.7790570422535212
O 4.756604507042254 0.8696707042253538 -0.8334829577464786
O -9.10609722346186 5.9722987680298765 5.894229982563616
H -9.1607303940234 5.869325510988828 6.856196240760208
H -9.305268190231871 5.087716860952366 5.552458538515092
O 2.92692250448473 1.4373534340720053 5.199927537191613
H 2.6074018828064416 1.155655940743498 4.329571028929189
H 3.147063298758551 0.6070803001566338 5.648421124765434
O -4.260219431180795 4.657597597651253 -6.6751856408960695
H -5.0434309919916585 4.124436625851467 -6.878376157558927
H -4.568343630927405 5.571475062822397 -6.769256893055676
O -10.139949540401487 7.661074051800412 -0.33885606481907304
H -10.116133687576497 6.725029710631537 -0.5882977482241243
H -9.246612877894032 7.837856536822179 -0.007707299594792438
O -10.147361160666996 12.697674255585369 -2.143098670835559
H -11.062513959400984 12.70806864016984 -1.8247361908878394
H -10.224733443181774 12.422316920992424 -3.0689246871498117
O 2.8755746246648286 -6.034687932897681 3.410214094850194
H 3.7311172147885054 -5.8316468006300335 3.817385473991637
H 2.94134293457633 -5.650115795641761 2.523230022299961
O -1.5279079642875546 1.3787664370143498 12.100700973118222
H -1.214373748866758 0.4636592124496086 12.04375871982699
H -1.4553788815596498 1.5928267501854536 13.04297463760415
O -0.6650277194799326 -0.9834782288869759 -10.1869141335697
H -0.14151891635778133 -1.4957351152239413 -10.821342043070828
H -1.182040453283319 -1.653534366533584 -9.715019495130928
O 6.41090358149072 -5.744550078023126 4.200010173628741
H 6.149273641470216 -5.992325187907612 5.099523723446975
H 5.598287193325835 -5.8492885024892 3.68266462911693
O -4.374878289463627 7.496866613883434 -5.735449317561365
H -4.545049248859314 8.215924949908098 -5.108580662361736
H -3.4522622502094453 7.253093901976452 -5.56717438377608
O 6.207989991645183 10.741837428244747 -7.879922038775691
H 6.07313812641561 11.247161418635955 -8.695660965197135
H 7.144033469743571 10.880120024121117 -7.670966361448735
O -1.1726542895294783 -9.370018836078302 -0.9195603277273825
H -1.1587651022935486 -9.721296470535165 -1.8225434233101947
H -0.6406568772530568 -10.002788329713386 -0.41404725612982923
O -10.354485954886172 -12.10615465867281 -2.754198613822661
H -11.308435159672865 -12.269970375659266 -2.7082346882390964
H -9.994234630605401 -12.610515799857016 -2.009349121027429
O -5.019363845438452 4.8510848752020115 6.659524837021218
H -4.309126701810527 5.312706928504739 7.130094318198887
H -5.0117125810848435 3.9599995880372205 7.040143298807077
O 7.545169323069551 1.7491159401776444 -6.153740165369788
H 7.225685778565192 2.5741173462645275 -5.758429778906699
H 6.901429305655516 1.0856885598607064 -5.8631806270207925
O -13.583706842968478 -0.36975243699073257 -5.245874449198374
H -13.669756717369125 -0.9232067454959525 -6.036602660667171
H -13.390659335556276 -1.0020884511750978 -4.537463714280158
O 9.335297463452768 -9.892781484748749 0.7852193876923561
H 8.643713087750573 -10.444544716121053 1.1804860631030234
H 8.941051736732565 -9.008070179446678 0.7566159345167947
O -1.8104815461894006 6.080130128006101 4.327305104757368
H -1.6624324074560919 5.969641857551039 3.376073717810861
H -0.987040334798125 5.766336889981129 4.730343960765409
O -8.007026804088232 2.7799764292844307 -11.394400181725889
H -7.051359622246126 2.9132781174872586 -11.305528058018618
H -8.338416674216067 2.8490220300656226 -10.486448969771512
O 3.7584404648336096 3.6068671889087742 -15.953005478734012
H 3.7789146716011586 4.420125068256689 -16.47946514996797
H 4.525471808926705 3.6883456504563448 -15.366502177990885
O 2.8078006448508237 1.006106195291849 -6.926817495674168
H 2.2315760741868864 1.4096816594054487 -6.260439640528414
H 3.6173100939606004 1.5373496060996745 -6.888911894831387
O -6.577797726861802 10.776583534105647 0.49524323958724414
H -7.4454861660752005 10.899560259903 0.9087173672755233
H -6.2783844680898815 9.918096362601682 0.8303751854454391
O 8.292131357665914 7.804362617253262 3.5546815735488706
H 8.300359444124435 7.798566139889238 2.5857305653222418
H 8.86126302824396 8.552757771035036 3.7891080644601924
O -9.117068918151253 -0.26342635131102693 -8.66752400178904
H -9.045471393879552 -0.03771162289406782 -9.607148401639227
H -8.787200962019655 0.5253801912382436 -8.21152694670093
C -4.260317206652897 9.64430112343275 -3.982276936559778
O -4.963368116768571 8.675524848048799 -3.9854712030984096
O -3.5572662965372217 10.613077398816703 -3.979082670021146