146

C -5.3564454929577465 1.0091607042253532 -0.0734429577464788
C -4.079135492957747 0.16955070422535368 -0.19788295774647868
C -4.333545492957747 -1.2789292957746463 0.3017270422535212
C -3.1403854929577464 -2.1745492957746464 0.7330270422535212
C -2.905235492957746 0.902300704225353 0.41966704225352136
C -2.7423854929577463 1.056130704225354 1.8024770422535212
C -1.8861754929577463 1.3499307042253532 -0.4326129577464788
C -1.5304554929577463 1.5279207042253526 2.3254170422535214
H -3.5237954929577464 0.7301007042253529 2.484817042253521
C -0.6776454929577462 1.8010507042253527 0.08546704225352131
H -1.9759254929577463 1.2426607042253535 -1.5115229577464788
C -0.4680254929577463 1.8513207042253539 1.4698070422535212
H -1.3950654929577464 1.5446707042253527 3.404047042253521
H 0.1461845070422536 1.9972507042253538 -0.6030529577464789
C -1.8679654929577463 -2.0866092957746467 -0.08765295774647863
C -0.6628654929577462 -1.814079295774647 0.5787970422535212
C -1.8438954929577462 -2.213429295774647 -1.4808029577464787
C 0.5129345070422537 -1.5763292957746469 -0.13022295774647863
H -0.6401854929577462 -1.7032692957746463 1.6609470422535213
C -0.6547954929577462 -1.9962392957746466 -2.1933129577464787
H -2.7578654929577464 -2.4351492957746466 -2.026182957746479
C 0.5308845070422537 -1.645769295774647 -1.5261029577464789
H 1.4044045070422537 -1.2610992957746463 0.41551704225352126
H -0.6795654929577464 -2.0467992957746466 -3.2793129577464786
C 1.7843245070422535 -1.2521692957746469 -2.2771629577464787
H 1.4981245070422535 -0.9384492957746469 -3.290282957746479
H 2.241984507042254 -0.38631929577464685 -1.8135029577464787
C 0.9385645070422537 2.0647807042253534 1.9815670422535212
H 1.0508945070422537 1.5807407042253532 2.9609770422535213
H 1.6053245070422537 1.5496207042253536 1.3096170422535214
C 3.9676945070422533 -1.6881692957746468 -3.314052957746479
H 4.795084507042254 -2.398849295774647 -3.4044129577464783
H 3.548404507042253 -1.4816192957746468 -4.303802957746479
H 4.307714507042253 -0.7637192957746466 -2.851282957746479
C 2.344694507042253 -3.565079295774647 -3.101282957746479
H 1.6334345070422536 -4.047909295774646 -2.4251929577464786
H 1.8561845070422536 -3.293109295774647 -4.041792957746479
H 3.1808045070422537 -4.243519295774647 -3.298122957746479
C 3.5156645070422536 -2.648489295774647 -1.1110629577464786
H 3.9311845070422535 -1.748249295774647 -0.6771029577464787
H 2.767184507042254 -3.1044092957746465 -0.45972295774647876
H 4.319224507042254 -3.371819295774647 -1.2863129577464787
C 2.963994507042253 3.381090704225353 2.401027042253521
H 3.3337945070422537 4.369820704225353 2.6912870422535216
H 3.120994507042253 2.671350704225353 3.2183370422535216
H 3.4665445070422534 3.0664207042253535 1.4881370422535212
C 1.2973745070422538 4.282440704225354 0.8488370422535213
H 1.7592145070422538 3.7367207042253527 0.02653704225352116
H 0.23311450704225378 4.4484607042253534 0.6605570422535213
H 1.7921845070422535 5.251370704225354 0.9736770422535213
C 0.7724845070422537 4.194670704225353 3.2772470422535216
H -0.2956954929577462 4.278220704225354 3.057857042253521
H 0.9298945070422537 3.612620704225354 4.190337042253521
H 1.2046345070422537 5.193640704225353 3.3918370422535213
N 2.876084507042253 -2.324759295774647 -2.4576629577464786
N 1.4527845070422536 3.504690704225353 2.1388470422535213
C -3.593905492957746 -3.637819295774647 0.8297870422535213
H -2.8952554929577463 -1.8680692957746468 1.7595270422535212
H -5.022615492957747 -1.2402792957746467 1.1579970422535213
H -4.898275492957747 -1.7933092957746464 -0.48931295774647876
H -3.883675492957746 0.07871070422535364 -1.2758929577464788
H -3.8751654929577466 -4.038529295774646 -0.1505529577464788
H -4.4603554929577465 -3.7321892957746465 1.4932570422535212
H -2.7953554929577464 -4.271929295774647 1.2313670422535212
H -5.648775492957746 1.147700704225353 0.9733970422535213
H -6.189795492957747 0.5254307042253537 -0.5943629577464788
H -5.2178854929577465 2.002970704225354 -0.5139729577464787
C 3.6710445070422537 1.0263707042253536 -0.27764295774647874
O 2.7356545070422538 1.6631507042253526 -0.7327029577464788
O 3.650814507042253 0.3883007042253537 0.7790570422535212
O 4.756604507042254 0.8696707042253538 -0.8334829577464786
O -6.665488196036449 6.993154403823957 4.213888746995777
H -6.423756880403732 6.775732594825518 5.126720103224474
H -5.8636742755098386 7.397046169325779 3.849296066172964
O 8.067966746907903 -2.42153621627528 5.828651231015659
H 8.32631522494367 -1.6047856598982615 5.375725244286663
H 8.696065518639356 -2.4905090186334147 6.563291707564769
O 6.692123759290338 2.3901840255737814 3.025876068941815
H 6.66675836843313 3.341810336762369 2.8449580828258285
H 5.75909399515426 2.1287896199334697 3.0353822898589122
O -3.6066212496501677 -12.901973700696075 3.218576721471914
H -3.990031169884201 -13.382203598030195 2.46934816110292
H -3.437511333495555 -12.015227102054107 2.8663775585610964
O -2.7930439089984036 3.7946748948936566 3.605058171878127
H -2.0851459662787155 4.42853148192009 3.4151274300893486
H -2.3239866273730714 2.9640543276619233 3.7754010148328176
O -4.280163478873271 7.648897912681073 -2.2780726896416015
H -4.3033595704556085 7.271624625497223 -3.170313780946411
H -3.957101102933219 8.552252014609321 -2.4142490902452924
O -8.316766300524792 0.4116449484750442 8.008511847471361
H -8.478846628237728 0.36798485993208807 7.05415807609678
H -7.382214125938223 0.1718707315975596 8.098414584895222
O 13.775715340578124 3.5324341201126135 0.002220289908799411
H 13.419943758849103 3.004786278198061 -0.7285202204346097
H 14.190901320867248 2.877539850410951 0.583336493075848
O 4.056799720429674 1.8855189341172935 -11.134581677513262
H 3.268552354771087 1.7054283852686307 -11.668623662424265
H 4.004912695174666 1.2384968640810903 -10.415115123880465
O -0.07579926768996836 -10.199422043882084 -4.34693816969118
H -0.2554115132662198 -10.508802066471539 -5.247488445778865
H -0.2591225937256314 -10.972909304868256 -3.792797429875627
O 5.225268138830525 6.408701948735202 -9.053674976518142
H 5.804073117728587 6.738440857005241 -9.757396800590477
H 5.79115504077785 6.406279804412585 -8.267082266329863
O -8.489839830119502 -0.964747928327514 5.123522082080613
H -8.455086404964486 -0.27024505670746946 5.798374153020244
H -8.092865072600048 -0.5517530141103584 4.341979897023956
O 0.9327268945298383 10.497530883330322 -3.491167183355169
H 0.05097341454174614 10.170513896529656 -3.2576333575981664
H 1.1504006697497038 10.021718231944957 -4.3067543293200625
O 2.7068572050126223 3.7591392331884896 -4.399631789056045
H 3.136517827427066 2.9171478593479954 -4.612727149926787
H 3.243012930932139 4.119282626922382 -3.677277500764247
O 8.557814825023891 -8.97426407239512 0.629144273237209
H 7.723097407526068 -9.24887994101728 1.0375562154311933
H 8.987185097205053 -9.809337939266676 0.38986462400798505
O -1.7929814870825602 3.0577275853122416 12.747738924136062
H -1.3138486096810986 3.0708234807686368 13.589895406160153
H -2.65278679929334 2.6721307147744238 12.973596894607693
O -3.2642682872623094 1.5795907731107546 11.189946030791138
H -3.5525210944871164 0.7584276405795798 11.616054920394024
H -2.4822366824123137 1.3173759062105095 10.681387403991605
O 3.485076518898371 -6.051227064678912 -1.4180693439900587
H 4.150913957982776 -6.439672948235839 -0.8309257012916123
H 4.003936988589731 -5.523763433731382 -2.0437912273530325
O 4.466232303276842 -0.6931134104833494 6.084334954740917
H 3.8986458453371307 -0.06742580920474905 5.60964769425283
H 5.3595860915445765 -0.4791756828326279 5.775933265421075
O 3.179322715183569 -8.677855885620534 -6.154866874273117
H 2.9132264064121185 -9.608741272726057 -6.195022912817969
H 3.405163494425309 -8.53897611102648 -5.222842038262731
O 8.906244552992566 -5.794236314914857 5.883394239343106
H 8.976450192877099 -5.780978145712199 6.849759980653196
H 9.602781253626762 -6.408352964925306 5.606520063679194
O -5.514152273507257 1.4840297931475501 -10.059345054264528
H -5.720875982475064 1.6662124189022294 -10.988345676397648
H -6.379851002613112 1.4764168307050667 -9.624063883608875
O 1.885430372287229 1.0088974174274212 10.945791371523732
H 2.2217476705716654 1.7008525673485624 10.356676694850108
H 0.9231698247883715 1.0635660191471776 10.84565183381157
O 6.83748961563499 -6.278527442663903 7.061045933358365
H 6.735220433487685 -6.6892540802326454 6.189373976442005
H 7.060283153992751 -5.356977202516749 6.860870664029832
C -4.5847070558080825 -9.578898747618474 -2.86175172479636
O -4.067087687098879 -8.769556017291448 -2.1477119560832443
O -5.102326424517286 -10.388241477945503 -3.5757914935094752