146

C -5.3564454929577465 1.0091607042253532 -0.0734429577464788
C -4.079135492957747 0.16955070422535368 -0.19788295774647868
C -4.333545492957747 -1.2789292957746463 0.3017270422535212
C -3.1403854929577464 -2.1745492957746464 0.7330270422535212
C -2.905235492957746 0.902300704225353 0.41966704225352136
C -2.7423854929577463 1.056130704225354 1.8024770422535212
C -1.8861754929577463 1.3499307042253532 -0.4326129577464788
C -1.5304554929577463 1.5279207042253526 2.3254170422535214
H -3.5237954929577464 0.7301007042253529 2.484817042253521
C -0.6776454929577462 1.8010507042253527 0.08546704225352131
H -1.9759254929577463 1.2426607042253535 -1.5115229577464788
C -0.4680254929577463 1.8513207042253539 1.4698070422535212
H -1.3950654929577464 1.5446707042253527 3.404047042253521
H 0.1461845070422536 1.9972507042253538 -0.6030529577464789
C -1.8679654929577463 -2.0866092957746467 -0.08765295774647863
C -0.6628654929577462 -1.814079295774647 0.5787970422535212
C -1.8438954929577462 -2.213429295774647 -1.4808029577464787
C 0.5129345070422537 -1.5763292957746469 -0.13022295774647863
H -0.6401854929577462 -1.7032692957746463 1.6609470422535213
C -0.6547954929577462 -1.9962392957746466 -2.1933129577464787
H -2.7578654929577464 -2.4351492957746466 -2.026182957746479
C 0.5308845070422537 -1.645769295774647 -1.5261029577464789
H 1.4044045070422537 -1.2610992957746463 0.41551704225352126
H -0.6795654929577464 -2.0467992957746466 -3.2793129577464786
C 1.7843245070422535 -1.2521692957746469 -2.2771629577464787
H 1.4981245070422535 -0.9384492957746469 -3.290282957746479
H 2.241984507042254 -0.38631929577464685 -1.8135029577464787
C 0.9385645070422537 2.0647807042253534 1.9815670422535212
H 1.0508945070422537 1.5807407042253532 2.9609770422535213
H 1.6053245070422537 1.5496207042253536 1.3096170422535214
C 3.9676945070422533 -1.6881692957746468 -3.314052957746479
H 4.795084507042254 -2.398849295774647 -3.4044129577464783
H 3.548404507042253 -1.4816192957746468 -4.303802957746479
H 4.307714507042253 -0.7637192957746466 -2.851282957746479
C 2.344694507042253 -3.565079295774647 -3.101282957746479
H 1.6334345070422536 -4.047909295774646 -2.4251929577464786
H 1.8561845070422536 -3.293109295774647 -4.041792957746479
H 3.1808045070422537 -4.243519295774647 -3.298122957746479
C 3.5156645070422536 -2.648489295774647 -1.1110629577464786
H 3.9311845070422535 -1.748249295774647 -0.6771029577464787
H 2.767184507042254 -3.1044092957746465 -0.45972295774647876
H 4.319224507042254 -3.371819295774647 -1.2863129577464787
C 2.963994507042253 3.381090704225353 2.401027042253521
H 3.3337945070422537 4.369820704225353 2.6912870422535216
H 3.120994507042253 2.671350704225353 3.2183370422535216
H 3.4665445070422534 3.0664207042253535 1.4881370422535212
C 1.2973745070422538 4.282440704225354 0.8488370422535213
H 1.7592145070422538 3.7367207042253527 0.02653704225352116
H 0.23311450704225378 4.4484607042253534 0.6605570422535213
H 1.7921845070422535 5.251370704225354 0.9736770422535213
C 0.7724845070422537 4.194670704225353 3.2772470422535216
H -0.2956954929577462 4.278220704225354 3.057857042253521
H 0.9298945070422537 3.612620704225354 4.190337042253521
H 1.2046345070422537 5.193640704225353 3.3918370422535213
N 2.876084507042253 -2.324759295774647 -2.4576629577464786
N 1.4527845070422536 3.504690704225353 2.1388470422535213
C -3.593905492957746 -3.637819295774647 0.8297870422535213
H -2.8952554929577463 -1.8680692957746468 1.7595270422535212
H -5.022615492957747 -1.2402792957746467 1.1579970422535213
H -4.898275492957747 -1.7933092957746464 -0.48931295774647876
H -3.883675492957746 0.07871070422535364 -1.2758929577464788
H -3.8751654929577466 -4.038529295774646 -0.1505529577464788
H -4.4603554929577465 -3.7321892957746465 1.4932570422535212
H -2.7953554929577464 -4.271929295774647 1.2313670422535212
H -5.648775492957746 1.147700704225353 0.9733970422535213
H -6.189795492957747 0.5254307042253537 -0.5943629577464788
H -5.2178854929577465 2.002970704225354 -0.5139729577464787
C 3.6710445070422537 1.0263707042253536 -0.27764295774647874
O 2.7356545070422538 1.6631507042253526 -0.7327029577464788
O 3.650814507042253 0.3883007042253537 0.7790570422535212
O 4.756604507042254 0.8696707042253538 -0.8334829577464786
O 7.431205171397484 0.7153664853908086 0.3346630834696571
H 7.204353230041963 0.31782708768770984 -0.519425893673293
H 6.830792163721205 0.2834761613936312 0.9607117337762744
O 9.967480219296942 5.589369488777211 4.7449153959831545
H 9.140983933444062 5.442924635481752 5.229090107543629
H 9.92453553666789 6.521940337215131 4.485243851185372
O -3.0208586341713364 3.058820662080004 4.993582410754595
H -3.882348479575788 2.8114364263209897 4.625338411396909
H -2.9269702350900935 3.994809060438598 4.761047185560489
O -4.549777681875618 7.30563463054152 -6.158751193865713
H -4.530854574402213 7.278668387157534 -5.190308064600342
H -4.382905436488034 6.388059255239462 -6.421755050602819
O -5.16527774122504 7.927435757528871 0.42205206496249215
H -5.5687037416602205 7.06715942239606 0.23194828729530137
H -5.15485896253317 8.375982732689607 -0.43681870786932286
O -10.059460397533268 4.02249285360619 -3.651336718641234
H -9.172276570896939 4.405085584155355 -3.577208335508633
H -10.59339179824246 4.548872767991401 -3.0374935877286715
O -5.402933693189433 -8.655356769003264 -0.6077978484975467
H -4.926080967064309 -8.227105794125588 0.11896204101435964
H -6.334652231306822 -8.581536594702213 -0.3520380160481213
O 2.0787249068347635 3.4530912313105504 -6.721920033386418
H 1.9941157006971797 2.956195218214721 -7.549508694078576
H 2.7276809296964606 2.9470090993248856 -6.21035488565216
O 0.5375932031370496 5.013043513899942 -7.093011940184955
H 1.399792917568687 5.128140788770649 -7.520015015878025
H 0.16705820991540854 5.908073683164286 -7.0687888271547346
O -4.74030805147869 0.36053864675884184 6.8734029077045005
H -5.4556252608134645 0.9475066593209702 7.161078417886333
H -5.008131645296772 0.08350122245564529 5.984311949236349
O -4.361528688844231 -4.781797353773417 8.271899420844134
H -4.04747283035711 -5.6655650219947855 8.028402021974074
H -3.6031362034169403 -4.379476488439971 8.72127755078012
O -1.2784880398232925 2.5254170830229232 -8.385994903280787
H -0.4982585294358358 2.0351252741155514 -8.086289697889073
H -1.6904464923777045 1.9356210952364763 -9.03514270652746
O -13.014191382805155 -1.6412508996477024 6.4980026999929645
H -12.721718220457607 -2.080405246289282 5.68524796082977
H -12.321989678861593 -0.9858613092564612 6.672023475087302
O -1.7879900021653885 1.0626698641849677 9.697251813884964
H -2.174230376310717 1.0247946612540695 8.809360379483765
H -1.159831288672368 1.7988465932295319 9.648033945421988
O -6.393681988880839 13.484595609619547 -1.3277490240883423
H -6.107435105239613 14.335596688746723 -1.6922037425789482
H -7.340616689376507 13.607266439308825 -1.1627384643034522
O -4.014355819513618 -9.336430187362678 7.070925585166796
H -4.3172473672932865 -9.907128061429923 7.793094543042144
H -4.739705537110015 -9.366222489206148 6.429098388614879
O -3.4358657748673456 -13.667580252011987 5.086106765767374
H -3.3494789842165713 -14.563745124243614 4.727786795518526
H -3.6833920812989245 -13.808674927882336 6.012273578153447
O -1.8988322272317049 1.9269096742572447 7.036974057480423
H -2.152993047300598 1.94727575881984 6.102118530117238
H -0.9303063172988058 1.90520920910979 7.015793974831068
O 3.986768845422003 0.47425521128188297 3.4346636444900454
H 4.388191363140274 -0.09742336653808792 2.763090176557861
H 3.776132103306166 -0.1308670673368333 4.161589455759751
O -2.0624097244719835 9.871017499228268 -1.3501006573703291
H -2.1376661625624633 10.552830549286924 -0.665677695894277
H -1.3708236349472986 10.206807463808198 -1.939944471242582
O 4.8416866185775325 -5.121508104668973 6.994129781306725
H 4.361626595615528 -5.876758209455905 6.622502265542552
H 4.232253999586456 -4.758716400397806 7.654384282633068
O 5.39908867700627 6.0050969934396585 6.579784652879604
H 5.023109157076922 6.383968623735024 5.771043009800041
H 4.623430217208703 5.775524837633698 7.11327553689082
O 5.944777261085369 -1.2549355428579942 -11.549617603195518
H 5.6823398813143955 -0.679689041671232 -12.28391007998616
H 5.364796597369603 -0.9848344981811787 -10.821860913305064
O -2.5473219164567693 -0.7700292379877856 11.617477982725154
H -3.0666665623613287 -0.08868022577985224 11.164695452989804
H -3.1130703618688824 -1.0440931237552213 12.354892131851566
C -8.355707520076294 2.7656192374768658 9.587514287998957
O -8.352839358851961 2.2254806262322164 10.655718534196232
O -8.358575681300625 3.305757848721515 8.519310041801678