146

C -5.3564454929577465 1.0091607042253532 -0.0734429577464788
C -4.079135492957747 0.16955070422535368 -0.19788295774647868
C -4.333545492957747 -1.2789292957746463 0.3017270422535212
C -3.1403854929577464 -2.1745492957746464 0.7330270422535212
C -2.905235492957746 0.902300704225353 0.41966704225352136
C -2.7423854929577463 1.056130704225354 1.8024770422535212
C -1.8861754929577463 1.3499307042253532 -0.4326129577464788
C -1.5304554929577463 1.5279207042253526 2.3254170422535214
H -3.5237954929577464 0.7301007042253529 2.484817042253521
C -0.6776454929577462 1.8010507042253527 0.08546704225352131
H -1.9759254929577463 1.2426607042253535 -1.5115229577464788
C -0.4680254929577463 1.8513207042253539 1.4698070422535212
H -1.3950654929577464 1.5446707042253527 3.404047042253521
H 0.1461845070422536 1.9972507042253538 -0.6030529577464789
C -1.8679654929577463 -2.0866092957746467 -0.08765295774647863
C -0.6628654929577462 -1.814079295774647 0.5787970422535212
C -1.8438954929577462 -2.213429295774647 -1.4808029577464787
C 0.5129345070422537 -1.5763292957746469 -0.13022295774647863
H -0.6401854929577462 -1.7032692957746463 1.6609470422535213
C -0.6547954929577462 -1.9962392957746466 -2.1933129577464787
H -2.7578654929577464 -2.4351492957746466 -2.026182957746479
C 0.5308845070422537 -1.645769295774647 -1.5261029577464789
H 1.4044045070422537 -1.2610992957746463 0.41551704225352126
H -0.6795654929577464 -2.0467992957746466 -3.2793129577464786
C 1.7843245070422535 -1.2521692957746469 -2.2771629577464787
H 1.4981245070422535 -0.9384492957746469 -3.290282957746479
H 2.241984507042254 -0.38631929577464685 -1.8135029577464787
C 0.9385645070422537 2.0647807042253534 1.9815670422535212
H 1.0508945070422537 1.5807407042253532 2.9609770422535213
H 1.6053245070422537 1.5496207042253536 1.3096170422535214
C 3.9676945070422533 -1.6881692957746468 -3.314052957746479
H 4.795084507042254 -2.398849295774647 -3.4044129577464783
H 3.548404507042253 -1.4816192957746468 -4.303802957746479
H 4.307714507042253 -0.7637192957746466 -2.851282957746479
C 2.344694507042253 -3.565079295774647 -3.101282957746479
H 1.6334345070422536 -4.047909295774646 -2.4251929577464786
H 1.8561845070422536 -3.293109295774647 -4.041792957746479
H 3.1808045070422537 -4.243519295774647 -3.298122957746479
C 3.5156645070422536 -2.648489295774647 -1.1110629577464786
H 3.9311845070422535 -1.748249295774647 -0.6771029577464787
H 2.767184507042254 -3.1044092957746465 -0.45972295774647876
H 4.319224507042254 -3.371819295774647 -1.2863129577464787
C 2.963994507042253 3.381090704225353 2.401027042253521
H 3.3337945070422537 4.369820704225353 2.6912870422535216
H 3.120994507042253 2.671350704225353 3.2183370422535216
H 3.4665445070422534 3.0664207042253535 1.4881370422535212
C 1.2973745070422538 4.282440704225354 0.8488370422535213
H 1.7592145070422538 3.7367207042253527 0.02653704225352116
H 0.23311450704225378 4.4484607042253534 0.6605570422535213
H 1.7921845070422535 5.251370704225354 0.9736770422535213
C 0.7724845070422537 4.194670704225353 3.2772470422535216
H -0.2956954929577462 4.278220704225354 3.057857042253521
H 0.9298945070422537 3.612620704225354 4.190337042253521
H 1.2046345070422537 5.193640704225353 3.3918370422535213
N 2.876084507042253 -2.324759295774647 -2.4576629577464786
N 1.4527845070422536 3.504690704225353 2.1388470422535213
C -3.593905492957746 -3.637819295774647 0.8297870422535213
H -2.8952554929577463 -1.8680692957746468 1.7595270422535212
H -5.022615492957747 -1.2402792957746467 1.1579970422535213
H -4.898275492957747 -1.7933092957746464 -0.48931295774647876
H -3.883675492957746 0.07871070422535364 -1.2758929577464788
H -3.8751654929577466 -4.038529295774646 -0.1505529577464788
H -4.4603554929577465 -3.7321892957746465 1.4932570422535212
H -2.7953554929577464 -4.271929295774647 1.2313670422535212
H -5.648775492957746 1.147700704225353 0.9733970422535213
H -6.189795492957747 0.5254307042253537 -0.5943629577464788
H -5.2178854929577465 2.002970704225354 -0.5139729577464787
C 3.6710445070422537 1.0263707042253536 -0.27764295774647874
O 2.7356545070422538 1.6631507042253526 -0.7327029577464788
O 3.650814507042253 0.3883007042253537 0.7790570422535212
O 4.756604507042254 0.8696707042253538 -0.8334829577464786
O 6.2320064575634 -4.1384516251507115 4.056576386937358
H 7.153283979477439 -4.174105600295761 3.7583417836930577
H 5.756269046598921 -4.684437329434071 3.412732096113078
O -7.980542015717883 -2.795523983979831 -5.805549091204686
H -8.711379671189627 -3.094537753621667 -5.24391358323787
H -7.193659782318675 -2.927434154037888 -5.255660009574646
O -7.475919065457382 -6.758753634187668 -2.9552540031377905
H -8.014476307329247 -6.720126323204732 -2.1506227925987025
H -7.887842301728797 -7.462248687282793 -3.4790630351240384
O -3.870806552535697 -6.536938816693377 -6.720426706122358
H -3.1976200333373264 -5.853580335730598 -6.857570622377597
H -4.542699544420318 -6.097970282130433 -6.1774456959387685
O -4.725211988786991 -0.9149541556111671 2.5499109724140663
H -4.215597531748985 -0.09743496292948672 2.6544233241958217
H -4.680888045536586 -1.3317045332691713 3.4235908079812187
O 2.1927999325396814 7.3934646992449675 7.798218620743134
H 2.0557738888537345 7.331422785268543 8.755476172900295
H 3.0675937274370426 6.999929337259905 7.661004628831383
O -0.12857611318437767 6.039318554279475 3.937645583672686
H -0.5273703472379356 6.486838561080355 3.176293917687395
H -0.7371481097565242 5.308900221517574 4.124971845722389
O -2.7093089563553243 6.571349494995545 7.5896119028463325
H -3.141306202409927 5.777279394600852 7.9386081950335186
H -2.8775360232940743 6.529482950792959 6.6362448220607
O -8.55585993184453 5.25082094866074 -4.024233997522851
H -9.458031951174014 4.919190984986464 -3.90145545040504
H -8.17931676124222 5.240906462719866 -3.1314412511694285
O 5.983523801728361 5.788841842336156 7.36216032166423
H 6.148390147005555 5.847312069040517 8.315243569698778
H 5.2938666370986205 5.112544370721227 7.28498085896772
O -3.769075299574172 1.859277582668058 -2.392698166272214
H -4.563982046846834 1.626234701413593 -2.8954721070617238
H -3.039624526772848 1.5627677065647219 -2.957450685286282
O 0.4857183370363054 5.345399295903826 -2.735390934036431
H -0.23176395246695147 4.870421550323232 -2.2897647876397667
H 1.2763880415808901 5.101833498057619 -2.23093175359175
O -5.089580635703366 0.4174921987355633 7.2838443217802755
H -5.211690181662529 0.3093858278976822 8.23902473838748
H -4.485055443590554 -0.30030711747830985 7.042441384673324
O -9.296027381160163 4.659553986309438 2.7394522592323574
H -9.206224239504474 4.678089438056999 1.7747973003598687
H -8.381479192587818 4.659752268724791 3.0597076506984933
O -1.1196921087064502 4.5144110744361585 6.032582524764434
H -1.1788026748093692 4.453497204019525 6.997861136495711
H -1.7404953422383644 3.8405964296635933 5.7170843250447865
O 6.531493290613598 -1.467652921726852 1.9982865501049494
H 6.454671596554068 -1.5538391657658333 1.0361858716100845
H 5.73844474207562 -0.9725154811616585 2.252991985681728
O 11.127886983113711 2.6638526362196293 3.2720959049646066
H 11.393313533709847 2.64438571299911 4.203834678462289
H 11.197566189167908 3.5991083517402767 3.0283675743798817
O -10.815067960680814 11.449623969673087 -1.4853734331395119
H -11.197499198773182 11.994953486717431 -2.18916986881628
H -11.184976965302013 10.568341364525438 -1.6449674257091695
O -8.317736894025517 12.232580888002051 8.461083178024575
H -8.228234793335236 12.598054494234452 9.354047776437923
H -7.451263628519468 12.38870723480288 8.05634797039135
O 4.636021102237997 -2.8898875408342612 8.176322499911777
H 4.768726646119109 -3.4641945939311847 8.945431077608285
H 4.690137341614399 -3.4942390475841765 7.420814304572466
O -0.11375550889012653 0.06081136819798583 4.905737934339026
H -0.9448106281969983 -0.38855648645741336 5.121105705317521
H 0.34996267549001603 0.11488837780750183 5.75485692883089
O 4.6727963861376125 3.312462031556122 -4.180056566506398
H 5.367123182339043 2.970715563004808 -4.763226360142319
H 4.454216572640213 2.5597641498940393 -3.6102928361998297
O 6.770534362659597 -8.32490747783563 0.6197990283663479
H 7.026828160782749 -7.634994883451932 1.2501175653413952
H 7.604719200858094 -8.575712268874579 0.19530573417708297
O -3.9237197975854317 -6.462078768604817 -9.493434138947197
H -4.4804927332088385 -6.475869068062709 -8.700476963118543
H -3.0313495200712635 -6.631361965277581 -9.155824258414153
C 4.765715228222264 4.4680245630427775 -0.025341128864803775
O 5.296677422875087 4.482138635936973 -1.098047145486225
O 4.234753033569444 4.453910490148582 1.0473648877566175