146

C -5.3564454929577465 1.0091607042253532 -0.0734429577464788
C -4.079135492957747 0.16955070422535368 -0.19788295774647868
C -4.333545492957747 -1.2789292957746463 0.3017270422535212
C -3.1403854929577464 -2.1745492957746464 0.7330270422535212
C -2.905235492957746 0.902300704225353 0.41966704225352136
C -2.7423854929577463 1.056130704225354 1.8024770422535212
C -1.8861754929577463 1.3499307042253532 -0.4326129577464788
C -1.5304554929577463 1.5279207042253526 2.3254170422535214
H -3.5237954929577464 0.7301007042253529 2.484817042253521
C -0.6776454929577462 1.8010507042253527 0.08546704225352131
H -1.9759254929577463 1.2426607042253535 -1.5115229577464788
C -0.4680254929577463 1.8513207042253539 1.4698070422535212
H -1.3950654929577464 1.5446707042253527 3.404047042253521
H 0.1461845070422536 1.9972507042253538 -0.6030529577464789
C -1.8679654929577463 -2.0866092957746467 -0.08765295774647863
C -0.6628654929577462 -1.814079295774647 0.5787970422535212
C -1.8438954929577462 -2.213429295774647 -1.4808029577464787
C 0.5129345070422537 -1.5763292957746469 -0.13022295774647863
H -0.6401854929577462 -1.7032692957746463 1.6609470422535213
C -0.6547954929577462 -1.9962392957746466 -2.1933129577464787
H -2.7578654929577464 -2.4351492957746466 -2.026182957746479
C 0.5308845070422537 -1.645769295774647 -1.5261029577464789
H 1.4044045070422537 -1.2610992957746463 0.41551704225352126
H -0.6795654929577464 -2.0467992957746466 -3.2793129577464786
C 1.7843245070422535 -1.2521692957746469 -2.2771629577464787
H 1.4981245070422535 -0.9384492957746469 -3.290282957746479
H 2.241984507042254 -0.38631929577464685 -1.8135029577464787
C 0.9385645070422537 2.0647807042253534 1.9815670422535212
H 1.0508945070422537 1.5807407042253532 2.9609770422535213
H 1.6053245070422537 1.5496207042253536 1.3096170422535214
C 3.9676945070422533 -1.6881692957746468 -3.314052957746479
H 4.795084507042254 -2.398849295774647 -3.4044129577464783
H 3.548404507042253 -1.4816192957746468 -4.303802957746479
H 4.307714507042253 -0.7637192957746466 -2.851282957746479
C 2.344694507042253 -3.565079295774647 -3.101282957746479
H 1.6334345070422536 -4.047909295774646 -2.4251929577464786
H 1.8561845070422536 -3.293109295774647 -4.041792957746479
H 3.1808045070422537 -4.243519295774647 -3.298122957746479
C 3.5156645070422536 -2.648489295774647 -1.1110629577464786
H 3.9311845070422535 -1.748249295774647 -0.6771029577464787
H 2.767184507042254 -3.1044092957746465 -0.45972295774647876
H 4.319224507042254 -3.371819295774647 -1.2863129577464787
C 2.963994507042253 3.381090704225353 2.401027042253521
H 3.3337945070422537 4.369820704225353 2.6912870422535216
H 3.120994507042253 2.671350704225353 3.2183370422535216
H 3.4665445070422534 3.0664207042253535 1.4881370422535212
C 1.2973745070422538 4.282440704225354 0.8488370422535213
H 1.7592145070422538 3.7367207042253527 0.02653704225352116
H 0.23311450704225378 4.4484607042253534 0.6605570422535213
H 1.7921845070422535 5.251370704225354 0.9736770422535213
C 0.7724845070422537 4.194670704225353 3.2772470422535216
H -0.2956954929577462 4.278220704225354 3.057857042253521
H 0.9298945070422537 3.612620704225354 4.190337042253521
H 1.2046345070422537 5.193640704225353 3.3918370422535213
N 2.876084507042253 -2.324759295774647 -2.4576629577464786
N 1.4527845070422536 3.504690704225353 2.1388470422535213
C -3.593905492957746 -3.637819295774647 0.8297870422535213
H -2.8952554929577463 -1.8680692957746468 1.7595270422535212
H -5.022615492957747 -1.2402792957746467 1.1579970422535213
H -4.898275492957747 -1.7933092957746464 -0.48931295774647876
H -3.883675492957746 0.07871070422535364 -1.2758929577464788
H -3.8751654929577466 -4.038529295774646 -0.1505529577464788
H -4.4603554929577465 -3.7321892957746465 1.4932570422535212
H -2.7953554929577464 -4.271929295774647 1.2313670422535212
H -5.648775492957746 1.147700704225353 0.9733970422535213
H -6.189795492957747 0.5254307042253537 -0.5943629577464788
H -5.2178854929577465 2.002970704225354 -0.5139729577464787
C 3.6710445070422537 1.0263707042253536 -0.27764295774647874
O 2.7356545070422538 1.6631507042253526 -0.7327029577464788
O 3.650814507042253 0.3883007042253537 0.7790570422535212
O 4.756604507042254 0.8696707042253538 -0.8334829577464786
O -3.9290323200184165 -1.5467574603064784 -3.864867350983295
H -3.2091508684074137 -1.7455952318214298 -3.2474520991912743
H -4.731871855255875 -1.6777941710441029 -3.338331497124544
O 11.007750007103725 -4.9136047521713495 2.3555336234072426
H 10.595126897895536 -5.6516251373472075 1.8822098043232631
H 10.744126319126426 -5.050447009926854 3.277888594082646
O 0.09193390540259383 6.669789980531304 -11.180240856451213
H -0.8704153053049679 6.6889366274392135 -11.291976076783559
H 0.23256190608174254 6.0231221633647625 -10.472422769676056
O 9.815020173068186 -3.7869836921280577 -1.3483825857565241
H 10.487188682740051 -4.38702185515291 -0.9918562130724431
H 9.010382894168913 -4.021356254313879 -0.8619771007956483
O 9.018342944071765 -8.813809826217673 -3.7252906498056726
H 9.082394181359323 -8.149555678335762 -3.0227017067361075
H 9.22159043446106 -8.319758512771253 -4.533724754499629
O 0.0769395561323945 -11.314444473354598 10.05479681174705
H -0.7982934693815528 -11.317183630565467 10.470641740737987
H 0.1415143435836616 -10.435914709873046 9.65109209812251
O 4.429000650568502 -9.893777955111592 -3.065434317035086
H 3.9616966360570283 -10.74263338269342 -3.059207119725621
H 3.7259643046787274 -9.238648557234502 -2.9409059560278186
O -1.9332491117784922 -6.156772733563105 11.418157891998417
H -1.8256474597398573 -6.316262269538299 12.36786960051473
H -2.7773063035303034 -5.685141305233145 11.354179792905933
O 5.677174970930388 9.354557088280238 -6.586769962115991
H 6.359990220352405 8.763587030729168 -6.2353655182982815
H 5.534013629435233 9.996214671225772 -5.874911604821646
O 4.209905304655276 -6.298859986451209 -8.005547963266661
H 5.0778795534987005 -5.874231563819622 -8.07820305901435
H 3.5830976129709584 -5.5626493866625815 -8.06932895341455
O -3.2681366271289947 10.81734798660993 1.0646345432757558
H -3.511735308580777 11.357876810500208 1.8310910846652515
H -2.4090777973690716 10.44052466495021 1.3075008759874907
O -15.670527753818112 -2.9518067797029586 2.2827511713435626
H -15.045512174082152 -3.6762952105739277 2.129651871797658
H -15.481657097841456 -2.6674585544327956 3.1896336920686323
O 10.570846123345607 -3.93121805866937 6.610232167936839
H 11.404813284795932 -4.398679734899865 6.452290052659551
H 10.774895801697902 -3.0089521075288843 6.39401193661873
O -7.015838394114452 4.11440092634888 8.528631268078097
H -7.4463876864373955 4.8598292174804945 8.973526004572937
H -7.604068274725722 3.3649210148541115 8.705344069317405
O -5.7231723573868525 -6.179138209329144 9.09400942827386
H -4.784648074859779 -6.313045154704167 8.89348896052213
H -6.039533915865191 -5.618337812915269 8.369868403335213
O -2.951914476332883 -4.125225693989843 -4.934162777598781
H -3.663940401145348 -4.221620948068641 -4.284013260728978
H -3.2939510454209704 -4.570911972492751 -5.723679510075476
O -2.431132530834566 7.322580773168536 -0.24691487259962014
H -2.035869246044129 6.616406075503391 -0.7798797766732514
H -1.8163116152207763 7.428275163745968 0.4945606036126995
O 3.4300520702501753 1.1649482583925077 -11.928178920324516
H 3.453540167233114 1.2577363658855472 -12.892443424134536
H 4.145584781081109 1.74119199728049 -11.620091209723565
O 3.8335883361457226 -8.089607114788238 11.200747796552172
H 4.515231712013669 -7.8744480171184295 11.85499257316507
H 3.2784398394538705 -8.745735966117506 11.648259831445218
O -7.707742017466888 -10.191838192139855 4.353611942146363
H -7.6850092481895365 -10.332116879331727 3.395085746353723
H -8.524727791000775 -9.69106509987244 4.497565060223627
O -4.351328659344706 -4.1453290861925165 3.932861452006865
H -4.15371291441134 -3.2009763542582066 3.8427876381504635
H -3.59158089472152 -4.583754210341208 3.5211228347200283
O 2.782955451185527 -7.251922781953344 5.989616567482992
H 3.197622472121484 -7.191639315416509 5.115897778449356
H 3.2902090230545946 -7.94237928449456 6.44230362961822
O -13.589648837800688 -0.36238329018870763 -7.410989673967189
H -13.96257455441971 -0.2747220061825284 -8.301051057283294
H -13.50669337514534 -1.3195972331617476 -7.285204925711915
O 1.4036954859723885 6.686669567924412 -4.22528421986729
H 1.209619003090419 6.649293444162413 -5.173917289639103
H 1.0643385182336642 5.8457894057701045 -3.883642088913677
C 7.961737926509575 0.14510941731946925 -4.662087065703254
O 7.17096154962533 -0.6940624151254299 -4.983461636403701
O 8.752514303393822 0.9842812497643681 -4.340712495002808