146

C -5.3564454929577465 1.0091607042253532 -0.0734429577464788
C -4.079135492957747 0.16955070422535368 -0.19788295774647868
C -4.333545492957747 -1.2789292957746463 0.3017270422535212
C -3.1403854929577464 -2.1745492957746464 0.7330270422535212
C -2.905235492957746 0.902300704225353 0.41966704225352136
C -2.7423854929577463 1.056130704225354 1.8024770422535212
C -1.8861754929577463 1.3499307042253532 -0.4326129577464788
C -1.5304554929577463 1.5279207042253526 2.3254170422535214
H -3.5237954929577464 0.7301007042253529 2.484817042253521
C -0.6776454929577462 1.8010507042253527 0.08546704225352131
H -1.9759254929577463 1.2426607042253535 -1.5115229577464788
C -0.4680254929577463 1.8513207042253539 1.4698070422535212
H -1.3950654929577464 1.5446707042253527 3.404047042253521
H 0.1461845070422536 1.9972507042253538 -0.6030529577464789
C -1.8679654929577463 -2.0866092957746467 -0.08765295774647863
C -0.6628654929577462 -1.814079295774647 0.5787970422535212
C -1.8438954929577462 -2.213429295774647 -1.4808029577464787
C 0.5129345070422537 -1.5763292957746469 -0.13022295774647863
H -0.6401854929577462 -1.7032692957746463 1.6609470422535213
C -0.6547954929577462 -1.9962392957746466 -2.1933129577464787
H -2.7578654929577464 -2.4351492957746466 -2.026182957746479
C 0.5308845070422537 -1.645769295774647 -1.5261029577464789
H 1.4044045070422537 -1.2610992957746463 0.41551704225352126
H -0.6795654929577464 -2.0467992957746466 -3.2793129577464786
C 1.7843245070422535 -1.2521692957746469 -2.2771629577464787
H 1.4981245070422535 -0.9384492957746469 -3.290282957746479
H 2.241984507042254 -0.38631929577464685 -1.8135029577464787
C 0.9385645070422537 2.0647807042253534 1.9815670422535212
H 1.0508945070422537 1.5807407042253532 2.9609770422535213
H 1.6053245070422537 1.5496207042253536 1.3096170422535214
C 3.9676945070422533 -1.6881692957746468 -3.314052957746479
H 4.795084507042254 -2.398849295774647 -3.4044129577464783
H 3.548404507042253 -1.4816192957746468 -4.303802957746479
H 4.307714507042253 -0.7637192957746466 -2.851282957746479
C 2.344694507042253 -3.565079295774647 -3.101282957746479
H 1.6334345070422536 -4.047909295774646 -2.4251929577464786
H 1.8561845070422536 -3.293109295774647 -4.041792957746479
H 3.1808045070422537 -4.243519295774647 -3.298122957746479
C 3.5156645070422536 -2.648489295774647 -1.1110629577464786
H 3.9311845070422535 -1.748249295774647 -0.6771029577464787
H 2.767184507042254 -3.1044092957746465 -0.45972295774647876
H 4.319224507042254 -3.371819295774647 -1.2863129577464787
C 2.963994507042253 3.381090704225353 2.401027042253521
H 3.3337945070422537 4.369820704225353 2.6912870422535216
H 3.120994507042253 2.671350704225353 3.2183370422535216
H 3.4665445070422534 3.0664207042253535 1.4881370422535212
C 1.2973745070422538 4.282440704225354 0.8488370422535213
H 1.7592145070422538 3.7367207042253527 0.02653704225352116
H 0.23311450704225378 4.4484607042253534 0.6605570422535213
H 1.7921845070422535 5.251370704225354 0.9736770422535213
C 0.7724845070422537 4.194670704225353 3.2772470422535216
H -0.2956954929577462 4.278220704225354 3.057857042253521
H 0.9298945070422537 3.612620704225354 4.190337042253521
H 1.2046345070422537 5.193640704225353 3.3918370422535213
N 2.876084507042253 -2.324759295774647 -2.4576629577464786
N 1.4527845070422536 3.504690704225353 2.1388470422535213
C -3.593905492957746 -3.637819295774647 0.8297870422535213
H -2.8952554929577463 -1.8680692957746468 1.7595270422535212
H -5.022615492957747 -1.2402792957746467 1.1579970422535213
H -4.898275492957747 -1.7933092957746464 -0.48931295774647876
H -3.883675492957746 0.07871070422535364 -1.2758929577464788
H -3.8751654929577466 -4.038529295774646 -0.1505529577464788
H -4.4603554929577465 -3.7321892957746465 1.4932570422535212
H -2.7953554929577464 -4.271929295774647 1.2313670422535212
H -5.648775492957746 1.147700704225353 0.9733970422535213
H -6.189795492957747 0.5254307042253537 -0.5943629577464788
H -5.2178854929577465 2.002970704225354 -0.5139729577464787
C 3.6710445070422537 1.0263707042253536 -0.27764295774647874
O 2.7356545070422538 1.6631507042253526 -0.7327029577464788
O 3.650814507042253 0.3883007042253537 0.7790570422535212
O 4.756604507042254 0.8696707042253538 -0.8334829577464786
O 1.4174336192890198 0.054260066927385775 -4.946779827111683
H 1.4003355292601005 -0.06648331995574308 -5.90807897240484
H 0.49837703309044756 0.26194496412111734 -4.720585399367199
O 2.1277719764598713 -5.242787256211454 0.7839900056747913
H 2.0572188722542917 -5.258264626694731 -0.1823174336993869
H 1.8784377869575895 -6.140200597730052 1.051279550381766
O -1.7370810953664713 -6.648243468426939 3.0065500468199304
H -2.3320111683941622 -5.989303951156728 3.3949110614531817
H -1.9011765337550608 -6.579211017538925 2.054043274075269
O 4.444555712798647 0.47879187351424424 -14.749244978157332
H 5.367003039381593 0.30117056238781004 -14.986961103848682
H 4.090175746522182 -0.39314384307642847 -14.518799995709456
O -5.509367306629459 -3.0592670906342647 -2.2599376476527846
H -5.3049905902926 -3.5764421294709847 -1.4663839355931647
H -4.773639026867737 -2.432187408215281 -2.326547816217074
O 1.758329484529473 -4.248204642493767 10.02799988540629
H 2.010207904744564 -4.730802493261214 10.829638165907285
H 2.525160168885078 -4.347980712948098 9.444067199563644
O -1.093271406608339 -9.731630616068191 -4.442104263423113
H -1.3969197201205237 -9.768751638759962 -3.522654923722701
H -0.4329326078878406 -9.022465886305788 -4.442068691149096
O -5.141670370218607 3.7252862807036076 3.8996783015575436
H -5.076445415769735 4.036418805271403 2.9843042717898136
H -5.179557885820397 4.540652352572707 4.421889608698893
O -3.6841340670640204 -1.4519672599415574 -9.325207341438306
H -3.3942517195718693 -1.6416236867313914 -10.23017475592888
H -3.530712212094254 -0.5004672365132268 -9.22485105546916
O -8.132505432640558 5.671464854148734 0.1653403884516944
H -7.921363390960955 6.612350967426899 0.26083759770766735
H -7.754890593861649 5.432953157896699 -0.6945905091121478
O 10.452930833952419 -1.8234738143971458 4.094872398640478
H 10.560497867517654 -2.1260290589967337 5.009124559783814
H 9.713858948076075 -2.3523765748685834 3.7587227864543635
O -3.898356758928855 9.496971274533301 -10.206037044014353
H -4.0070459917429755 9.162745836178685 -11.109058286248967
H -4.584958643182761 9.035528727534665 -9.701447534949414
O 1.355530049312619 -2.717153612883294 -10.64965717840754
H 0.6769542338970073 -2.239468161326138 -11.14997590582405
H 1.1915523595098223 -3.6480974484257347 -10.862769441340642
O 4.738682036899529 9.295024970313596 -6.6013751688272695
H 4.427779775827042 9.487388907366642 -7.498762073501874
H 4.24864722286505 8.497834560719305 -6.349749899458153
O -11.228250629422327 -6.12400899137883 -4.869617881325985
H -10.398401096500114 -6.208623388884044 -5.362727923145881
H -11.106499878648965 -5.31992178262415 -4.342756932210158
O -7.49186511565186 -6.27983495761938 9.106902732480204
H -7.201435808386214 -6.466487155750659 10.01231928375037
H -8.40364121095163 -6.60691052273321 9.081449421391614
O -11.307197688040741 -3.7217511452848564 3.4129635280601724
H -10.61618486381036 -4.350351482026803 3.155416929757913
H -10.824039942904408 -2.898894011116851 3.581565646562847
O 1.258702565485018 0.7265680283221427 6.6776642169992755
H 1.9574915625068305 1.0677796810903037 7.255795605661463
H 0.708224894250745 0.18986657797921166 7.267484385332205
O -2.632517862184071 -7.67647994349512 -1.501465339718193
H -2.925373495183165 -7.405494155708909 -0.6184196795518643
H -2.6688952612307375 -8.644388909046741 -1.4733430435211947
O 0.4724156150559229 -4.995660103866877 -9.869253039221855
H 0.10878133069663676 -5.371077128257962 -10.685218431831034
H 0.9768008723416672 -5.725826749623959 -9.480133358459435
O -1.623012027584207 12.285644713047304 3.3494419960364143
H -1.9507440841300432 13.197503351721279 3.357978921002892
H -0.8050963677439316 12.326036840553742 3.8674616807237334
O -5.011865727145543 3.3056457960779175 -14.846074145587083
H -4.772536651490366 3.026435085707674 -15.742584228999746
H -4.970438100464214 2.488174199049751 -14.327435654825193
O 5.253504746740143 -7.906908767638495 -5.291533962585117
H 4.402556029956681 -8.135885750641535 -5.694551554706609
H 5.009250678795379 -7.443906638001707 -4.4761009962756635
O -6.841192045067157 -1.4683758590968032 2.4225124401966873
H -6.466039870710912 -1.3257393978057581 1.5405356588208106
H -7.107198120024634 -0.5820170922392758 2.709863877987627
C -1.3525818847158213 9.415942437774465 0.46868720888978754
O -1.0241067810847313 9.30977502002458 -0.67745887386008
O -1.6810569883469109 9.522109855524349 1.6148332916396548