146

C -5.3564454929577465 1.0091607042253532 -0.0734429577464788
C -4.079135492957747 0.16955070422535368 -0.19788295774647868
C -4.333545492957747 -1.2789292957746463 0.3017270422535212
C -3.1403854929577464 -2.1745492957746464 0.7330270422535212
C -2.905235492957746 0.902300704225353 0.41966704225352136
C -2.7423854929577463 1.056130704225354 1.8024770422535212
C -1.8861754929577463 1.3499307042253532 -0.4326129577464788
C -1.5304554929577463 1.5279207042253526 2.3254170422535214
H -3.5237954929577464 0.7301007042253529 2.484817042253521
C -0.6776454929577462 1.8010507042253527 0.08546704225352131
H -1.9759254929577463 1.2426607042253535 -1.5115229577464788
C -0.4680254929577463 1.8513207042253539 1.4698070422535212
H -1.3950654929577464 1.5446707042253527 3.404047042253521
H 0.1461845070422536 1.9972507042253538 -0.6030529577464789
C -1.8679654929577463 -2.0866092957746467 -0.08765295774647863
C -0.6628654929577462 -1.814079295774647 0.5787970422535212
C -1.8438954929577462 -2.213429295774647 -1.4808029577464787
C 0.5129345070422537 -1.5763292957746469 -0.13022295774647863
H -0.6401854929577462 -1.7032692957746463 1.6609470422535213
C -0.6547954929577462 -1.9962392957746466 -2.1933129577464787
H -2.7578654929577464 -2.4351492957746466 -2.026182957746479
C 0.5308845070422537 -1.645769295774647 -1.5261029577464789
H 1.4044045070422537 -1.2610992957746463 0.41551704225352126
H -0.6795654929577464 -2.0467992957746466 -3.2793129577464786
C 1.7843245070422535 -1.2521692957746469 -2.2771629577464787
H 1.4981245070422535 -0.9384492957746469 -3.290282957746479
H 2.241984507042254 -0.38631929577464685 -1.8135029577464787
C 0.9385645070422537 2.0647807042253534 1.9815670422535212
H 1.0508945070422537 1.5807407042253532 2.9609770422535213
H 1.6053245070422537 1.5496207042253536 1.3096170422535214
C 3.9676945070422533 -1.6881692957746468 -3.314052957746479
H 4.795084507042254 -2.398849295774647 -3.4044129577464783
H 3.548404507042253 -1.4816192957746468 -4.303802957746479
H 4.307714507042253 -0.7637192957746466 -2.851282957746479
C 2.344694507042253 -3.565079295774647 -3.101282957746479
H 1.6334345070422536 -4.047909295774646 -2.4251929577464786
H 1.8561845070422536 -3.293109295774647 -4.041792957746479
H 3.1808045070422537 -4.243519295774647 -3.298122957746479
C 3.5156645070422536 -2.648489295774647 -1.1110629577464786
H 3.9311845070422535 -1.748249295774647 -0.6771029577464787
H 2.767184507042254 -3.1044092957746465 -0.45972295774647876
H 4.319224507042254 -3.371819295774647 -1.2863129577464787
C 2.963994507042253 3.381090704225353 2.401027042253521
H 3.3337945070422537 4.369820704225353 2.6912870422535216
H 3.120994507042253 2.671350704225353 3.2183370422535216
H 3.4665445070422534 3.0664207042253535 1.4881370422535212
C 1.2973745070422538 4.282440704225354 0.8488370422535213
H 1.7592145070422538 3.7367207042253527 0.02653704225352116
H 0.23311450704225378 4.4484607042253534 0.6605570422535213
H 1.7921845070422535 5.251370704225354 0.9736770422535213
C 0.7724845070422537 4.194670704225353 3.2772470422535216
H -0.2956954929577462 4.278220704225354 3.057857042253521
H 0.9298945070422537 3.612620704225354 4.190337042253521
H 1.2046345070422537 5.193640704225353 3.3918370422535213
N 2.876084507042253 -2.324759295774647 -2.4576629577464786
N 1.4527845070422536 3.504690704225353 2.1388470422535213
C -3.593905492957746 -3.637819295774647 0.8297870422535213
H -2.8952554929577463 -1.8680692957746468 1.7595270422535212
H -5.022615492957747 -1.2402792957746467 1.1579970422535213
H -4.898275492957747 -1.7933092957746464 -0.48931295774647876
H -3.883675492957746 0.07871070422535364 -1.2758929577464788
H -3.8751654929577466 -4.038529295774646 -0.1505529577464788
H -4.4603554929577465 -3.7321892957746465 1.4932570422535212
H -2.7953554929577464 -4.271929295774647 1.2313670422535212
H -5.648775492957746 1.147700704225353 0.9733970422535213
H -6.189795492957747 0.5254307042253537 -0.5943629577464788
H -5.2178854929577465 2.002970704225354 -0.5139729577464787
C 3.6710445070422537 1.0263707042253536 -0.27764295774647874
O 2.7356545070422538 1.6631507042253526 -0.7327029577464788
O 3.650814507042253 0.3883007042253537 0.7790570422535212
O 4.756604507042254 0.8696707042253538 -0.8334829577464786
O 0.24464387107737284 -8.388260626614187 -11.077888228554762
H 0.9978764613897053 -7.9138916495947695 -10.695027816089688
H -0.005662192050926329 -9.023714154783423 -10.39049632243535
O 7.522689578789441 -3.294039010395422 -10.302863030985836
H 8.416451599300112 -2.943447979261272 -10.171551430276015
H 7.007022850916475 -2.8948007083122285 -9.586163269429775
O -4.480386579436894 10.188379779634419 7.331729536194506
H -4.346277958899437 10.894395805403803 7.981747694521135
H -3.9851237763513767 9.438801400608176 7.694784564910907
O -11.483293608429229 1.1455951141008485 2.1537205574174774
H -11.89121198308693 0.9534960855185206 3.011431417634571
H -10.669164480162628 0.6201144061916946 2.1587932710062976
O 4.489474470787459 14.858333333977946 -1.5200732301971662
H 4.405761145281433 15.633592446598602 -2.0953407717214203
H 5.049622795621558 15.166570171740961 -0.7919346099253044
O 9.280915464490128 1.879644522233908 3.345450884462706
H 8.5362782800016 2.483921439379447 3.2064105026231777
H 8.965746973212212 1.0344817796238321 2.9914301154258935
O -3.7297842039151785 0.7433511098752401 8.810623096934197
H -4.28779544713243 0.7650592946687405 8.018714286491916
H -3.5712607520274893 1.6780722629787674 9.010944402447173
O -0.40390493681330175 -11.098519978462603 -4.273636925207393
H 0.22786679094114864 -10.374864401317245 -4.400737069096275
H -0.9413997360192286 -11.084271760553657 -5.079774800147531
O -3.1448605112013825 10.117104434789614 4.6504329496989945
H -3.9499095968022417 10.325437072083922 5.147887308320183
H -2.427265123946861 10.344060128085646 5.260768855386633
O -2.9967080244756357 -5.187172158042766 2.6906969924524815
H -3.010038799062083 -6.04298897692349 3.1449735820648055
H -2.5899206694060224 -5.383546525788039 1.8334204327891999
O -6.128567101828221 -4.596578238376734 5.6052042959506885
H -6.064228933993798 -4.409256287866782 4.656658860076972
H -6.6813819517761885 -5.3911600330860345 5.649897220374482
O -0.5751841553679498 10.569769501590905 -11.595117064283599
H -1.2894001110959175 11.08480453510752 -11.999594306825287
H -0.3328872306180406 11.082477535710183 -10.809378802324643
O -9.320715526472451 -14.086099273982962 -6.540003915138696
H -10.0411402925826 -14.08427749435901 -7.188041101104236
H -9.183754090418205 -13.147984760600036 -6.339642568780976
O 7.451175167773543 9.225890260130397 5.056515666617575
H 7.850876202565818 9.101322470473018 5.930408855437502
H 6.693088461201406 8.622346459401857 5.05768623090858
O -7.61973121863496 -3.8343743809178847 4.192559178977887
H -7.771260605500313 -3.805296946095774 3.2359188575402125
H -7.977744418734593 -2.9924810572610903 4.511940024421904
O 5.656715320823729 -8.60789962849627 -5.841553294021733
H 6.559195870319482 -8.75560895185227 -5.5211189474301765
H 5.642517890226903 -7.667798661635864 -6.076011284656677
O -8.197646510735082 -4.722663190312239 -5.673949321014203
H -8.041794256191709 -5.1786935001871965 -4.833286613307302
H -8.92350195841385 -4.111474243330178 -5.477623356195449
O 12.063424240607844 -5.069537678358941 -3.626225433080884
H 11.437690636478598 -5.063868405307321 -4.366085333944884
H 11.946346708511117 -5.944846826689502 -3.227366196473572
O -3.756986911929523 4.731733388283255 -5.471218693561477
H -4.5961047477765415 4.291700072481358 -5.268193336899298
H -3.408886994105333 4.234763274528632 -6.226737785011527
O 3.5685419849059548 -7.1740718549406575 1.7254787210759857
H 3.270220640896394 -6.2676874452084235 1.5568399520972065
H 2.8949686656535385 -7.535158726243079 2.3211944244650367
O 7.187761205398675 -0.07574068046632759 -9.039054510448725
H 7.481045364056896 -0.7422689016422531 -9.678344655497277
H 6.90930708920997 0.6708560704317438 -9.590433274118501
O -2.7376907616730066 0.6486520346385162 -3.6121541614123043
H -2.1427011562339944 0.47399351274496915 -4.35676756919482
H -3.255509200296076 -0.1662749355141685 -3.530178297649056
O 10.055306816073221 -7.316814063964961 0.832260592625766
H 9.373142766152657 -7.288347964733713 0.14464933101748723
H 9.941402775596252 -8.18890942323982 1.2390006794063455
O 3.044626439639039 5.313718215611161 -4.00428878529669
H 3.897803391269287 4.8551969527950005 -3.9757458763280487
H 3.1748532032589374 6.086177806449788 -3.433930025516054
C -4.406203647416033 -12.72969478583971 0.772660613977303
O -4.4353271750114365 -11.809010691045804 1.5370629131849416
O -4.37708011982063 -13.65037888063362 0.008258314769665164