146

C -5.3564454929577465 1.0091607042253532 -0.0734429577464788
C -4.079135492957747 0.16955070422535368 -0.19788295774647868
C -4.333545492957747 -1.2789292957746463 0.3017270422535212
C -3.1403854929577464 -2.1745492957746464 0.7330270422535212
C -2.905235492957746 0.902300704225353 0.41966704225352136
C -2.7423854929577463 1.056130704225354 1.8024770422535212
C -1.8861754929577463 1.3499307042253532 -0.4326129577464788
C -1.5304554929577463 1.5279207042253526 2.3254170422535214
H -3.5237954929577464 0.7301007042253529 2.484817042253521
C -0.6776454929577462 1.8010507042253527 0.08546704225352131
H -1.9759254929577463 1.2426607042253535 -1.5115229577464788
C -0.4680254929577463 1.8513207042253539 1.4698070422535212
H -1.3950654929577464 1.5446707042253527 3.404047042253521
H 0.1461845070422536 1.9972507042253538 -0.6030529577464789
C -1.8679654929577463 -2.0866092957746467 -0.08765295774647863
C -0.6628654929577462 -1.814079295774647 0.5787970422535212
C -1.8438954929577462 -2.213429295774647 -1.4808029577464787
C 0.5129345070422537 -1.5763292957746469 -0.13022295774647863
H -0.6401854929577462 -1.7032692957746463 1.6609470422535213
C -0.6547954929577462 -1.9962392957746466 -2.1933129577464787
H -2.7578654929577464 -2.4351492957746466 -2.026182957746479
C 0.5308845070422537 -1.645769295774647 -1.5261029577464789
H 1.4044045070422537 -1.2610992957746463 0.41551704225352126
H -0.6795654929577464 -2.0467992957746466 -3.2793129577464786
C 1.7843245070422535 -1.2521692957746469 -2.2771629577464787
H 1.4981245070422535 -0.9384492957746469 -3.290282957746479
H 2.241984507042254 -0.38631929577464685 -1.8135029577464787
C 0.9385645070422537 2.0647807042253534 1.9815670422535212
H 1.0508945070422537 1.5807407042253532 2.9609770422535213
H 1.6053245070422537 1.5496207042253536 1.3096170422535214
C 3.9676945070422533 -1.6881692957746468 -3.314052957746479
H 4.795084507042254 -2.398849295774647 -3.4044129577464783
H 3.548404507042253 -1.4816192957746468 -4.303802957746479
H 4.307714507042253 -0.7637192957746466 -2.851282957746479
C 2.344694507042253 -3.565079295774647 -3.101282957746479
H 1.6334345070422536 -4.047909295774646 -2.4251929577464786
H 1.8561845070422536 -3.293109295774647 -4.041792957746479
H 3.1808045070422537 -4.243519295774647 -3.298122957746479
C 3.5156645070422536 -2.648489295774647 -1.1110629577464786
H 3.9311845070422535 -1.748249295774647 -0.6771029577464787
H 2.767184507042254 -3.1044092957746465 -0.45972295774647876
H 4.319224507042254 -3.371819295774647 -1.2863129577464787
C 2.963994507042253 3.381090704225353 2.401027042253521
H 3.3337945070422537 4.369820704225353 2.6912870422535216
H 3.120994507042253 2.671350704225353 3.2183370422535216
H 3.4665445070422534 3.0664207042253535 1.4881370422535212
C 1.2973745070422538 4.282440704225354 0.8488370422535213
H 1.7592145070422538 3.7367207042253527 0.02653704225352116
H 0.23311450704225378 4.4484607042253534 0.6605570422535213
H 1.7921845070422535 5.251370704225354 0.9736770422535213
C 0.7724845070422537 4.194670704225353 3.2772470422535216
H -0.2956954929577462 4.278220704225354 3.057857042253521
H 0.9298945070422537 3.612620704225354 4.190337042253521
H 1.2046345070422537 5.193640704225353 3.3918370422535213
N 2.876084507042253 -2.324759295774647 -2.4576629577464786
N 1.4527845070422536 3.504690704225353 2.1388470422535213
C -3.593905492957746 -3.637819295774647 0.8297870422535213
H -2.8952554929577463 -1.8680692957746468 1.7595270422535212
H -5.022615492957747 -1.2402792957746467 1.1579970422535213
H -4.898275492957747 -1.7933092957746464 -0.48931295774647876
H -3.883675492957746 0.07871070422535364 -1.2758929577464788
H -3.8751654929577466 -4.038529295774646 -0.1505529577464788
H -4.4603554929577465 -3.7321892957746465 1.4932570422535212
H -2.7953554929577464 -4.271929295774647 1.2313670422535212
H -5.648775492957746 1.147700704225353 0.9733970422535213
H -6.189795492957747 0.5254307042253537 -0.5943629577464788
H -5.2178854929577465 2.002970704225354 -0.5139729577464787
C 3.6710445070422537 1.0263707042253536 -0.27764295774647874
O 2.7356545070422538 1.6631507042253526 -0.7327029577464788
O 3.650814507042253 0.3883007042253537 0.7790570422535212
O 4.756604507042254 0.8696707042253538 -0.8334829577464786
O -3.521966335126894 7.98006490648293 -1.6622800696641726
H -3.563453861604461 7.86213015947467 -0.7013755283621391
H -3.2873431654090286 7.10114004067791 -1.9960539344306747
O -7.70480096420893 -2.4075081726843828 -4.087028161202521
H -7.43379715672269 -2.8704254352344902 -3.280038755286262
H -6.870481004698103 -2.0987748869490024 -4.471158227379181
O 1.917005589968952 -0.02207453073007029 -6.830628137137033
H 1.344041662765544 -0.6565117799361274 -6.374372647478552
H 2.2923725838641724 0.5116177911906243 -6.114224570900123
O 0.04244296346461551 -8.556206689505181 -10.020907304584714
H 0.9252307714144496 -8.255631033691257 -9.757644473620756
H -0.29331649710828644 -9.012964652682163 -9.235032192362544
O -8.428893995475434 -3.4379067911904975 4.964728433167847
H -8.166466475664837 -3.770154209604405 5.8363423423635155
H -9.356291393562715 -3.182297650384212 5.081175749398028
O 7.357378896213406 3.2719375387870757 5.5445435698263195
H 6.67654793308667 2.7191403624855623 5.956674420917322
H 8.095720147462476 3.24012849298817 6.171283009792656
O 6.689313348082684 11.713839185561998 9.208827505165043
H 7.4189209016718864 11.635534354584369 9.841684936259242
H 5.901320784810898 11.787168293078812 9.767980888879341
O -7.85155611994481 2.0043400493990378 -8.853589988909457
H -7.472915087914929 2.425770896295002 -9.639716166471239
H -8.207972964095752 2.7446379154195064 -8.339889641361372
O -4.644267811332863 -5.489592081618635 -4.299294666662602
H -4.634841459791956 -4.7952517695667085 -3.623447027134092
H -4.91019199299337 -6.285022556917181 -3.8139735019947936
O 2.0007718094608937 -8.452442709908008 -2.677870423128625
H 1.7208391845406408 -8.310427719438778 -1.761117007597882
H 2.6145564689581775 -7.722852614014205 -2.85086934809486
O -2.6396789698007854 9.14810223906879 5.212254871305
H -2.3409599112758626 9.312108687007242 6.119358044052509
H -2.9137087142541582 8.218692978883794 5.220505358393822
O 10.626080964712845 -7.840212175513466 -1.9048352370584645
H 10.984215197941712 -8.486749497585894 -1.278180053518915
H 9.961581184558884 -8.339901665337 -2.4025423801006665
O -11.402366125541725 0.7480449463613978 0.2080488828038174
H -10.831855827892879 1.1774892089625189 -0.44698011082593325
H -10.783906471029939 0.26381139952220345 0.7754882823494373
O 6.514174214482153 -3.5147236016648886 10.607191526815987
H 6.458636883454948 -3.072063013373983 11.467386019553718
H 5.956474123317185 -2.973078263502493 10.028786063268548
O -1.3376033188250176 -5.134615034360776 -14.256908991552896
H -2.093957006661844 -5.670360352995385 -14.539527832674173
H -0.639304122562395 -5.7853031022956145 -14.089740767759608
O -2.2029754154708585 3.227466790027639 -0.7702039157528735
H -1.8319821646205101 3.12162378614223 0.11868787926607291
H -2.5431033113125996 4.134797144957899 -0.7753600569842727
O 1.91696853919071 -4.131953286902722 3.4434082849680627
H 2.476792632752465 -3.8088254427814046 2.7214991926847825
H 2.5154837984784617 -4.6739477231972835 3.9791166568696554
O -4.776612733623981 5.268194874202765 -7.0424631978929675
H -4.917241655009298 5.836806574837112 -6.270536001020284
H -5.672981204290171 5.0454683384370975 -7.335513363157176
O -6.314548817100663 -5.196149133903583 -4.965085237870449
H -6.318917083246403 -5.128490850490929 -3.998456750892885
H -6.361528597940628 -4.275718642489402 -5.264355274738957
O 6.712999182525671 6.318105166238988 -11.383446019381863
H 6.433168755145224 7.03628156011568 -11.970715085560514
H 5.994477444015754 5.670998550157789 -11.446227250754191
O 12.783168951649373 -3.209081994400143 -7.003651757180025
H 12.808055888685999 -3.092866711816969 -6.04196469510679
H 13.04025329766289 -2.341758592002946 -7.350955225329932
O -1.0515024167199423 4.4758940800403435 9.847820312783098
H -0.6323567478359324 3.6772492175054894 10.202010443507348
H -1.4195680999561753 4.189947155876425 8.998276933263817
O 3.1745187460569357 2.524554897730156 10.354343491255207
H 2.8647858369288555 1.7884832121364647 10.903188966384883
H 4.059997429679656 2.249900284772319 10.072467119895785
O -4.58499160873545 -7.328705902315989 0.03582526131396735
H -3.802915624651699 -7.3643879925012685 0.6068342809094922
H -4.350984642520556 -6.67602913758615 -0.6410910738742825
C 6.287139987257261 5.054570059979322 0.9650536088250123
O 6.9789197442762285 5.235226655127187 1.9250651815200288
O 5.595360230238294 4.873913464831456 0.005042036129995375