146

C -5.3564454929577465 1.0091607042253532 -0.0734429577464788
C -4.079135492957747 0.16955070422535368 -0.19788295774647868
C -4.333545492957747 -1.2789292957746463 0.3017270422535212
C -3.1403854929577464 -2.1745492957746464 0.7330270422535212
C -2.905235492957746 0.902300704225353 0.41966704225352136
C -2.7423854929577463 1.056130704225354 1.8024770422535212
C -1.8861754929577463 1.3499307042253532 -0.4326129577464788
C -1.5304554929577463 1.5279207042253526 2.3254170422535214
H -3.5237954929577464 0.7301007042253529 2.484817042253521
C -0.6776454929577462 1.8010507042253527 0.08546704225352131
H -1.9759254929577463 1.2426607042253535 -1.5115229577464788
C -0.4680254929577463 1.8513207042253539 1.4698070422535212
H -1.3950654929577464 1.5446707042253527 3.404047042253521
H 0.1461845070422536 1.9972507042253538 -0.6030529577464789
C -1.8679654929577463 -2.0866092957746467 -0.08765295774647863
C -0.6628654929577462 -1.814079295774647 0.5787970422535212
C -1.8438954929577462 -2.213429295774647 -1.4808029577464787
C 0.5129345070422537 -1.5763292957746469 -0.13022295774647863
H -0.6401854929577462 -1.7032692957746463 1.6609470422535213
C -0.6547954929577462 -1.9962392957746466 -2.1933129577464787
H -2.7578654929577464 -2.4351492957746466 -2.026182957746479
C 0.5308845070422537 -1.645769295774647 -1.5261029577464789
H 1.4044045070422537 -1.2610992957746463 0.41551704225352126
H -0.6795654929577464 -2.0467992957746466 -3.2793129577464786
C 1.7843245070422535 -1.2521692957746469 -2.2771629577464787
H 1.4981245070422535 -0.9384492957746469 -3.290282957746479
H 2.241984507042254 -0.38631929577464685 -1.8135029577464787
C 0.9385645070422537 2.0647807042253534 1.9815670422535212
H 1.0508945070422537 1.5807407042253532 2.9609770422535213
H 1.6053245070422537 1.5496207042253536 1.3096170422535214
C 3.9676945070422533 -1.6881692957746468 -3.314052957746479
H 4.795084507042254 -2.398849295774647 -3.4044129577464783
H 3.548404507042253 -1.4816192957746468 -4.303802957746479
H 4.307714507042253 -0.7637192957746466 -2.851282957746479
C 2.344694507042253 -3.565079295774647 -3.101282957746479
H 1.6334345070422536 -4.047909295774646 -2.4251929577464786
H 1.8561845070422536 -3.293109295774647 -4.041792957746479
H 3.1808045070422537 -4.243519295774647 -3.298122957746479
C 3.5156645070422536 -2.648489295774647 -1.1110629577464786
H 3.9311845070422535 -1.748249295774647 -0.6771029577464787
H 2.767184507042254 -3.1044092957746465 -0.45972295774647876
H 4.319224507042254 -3.371819295774647 -1.2863129577464787
C 2.963994507042253 3.381090704225353 2.401027042253521
H 3.3337945070422537 4.369820704225353 2.6912870422535216
H 3.120994507042253 2.671350704225353 3.2183370422535216
H 3.4665445070422534 3.0664207042253535 1.4881370422535212
C 1.2973745070422538 4.282440704225354 0.8488370422535213
H 1.7592145070422538 3.7367207042253527 0.02653704225352116
H 0.23311450704225378 4.4484607042253534 0.6605570422535213
H 1.7921845070422535 5.251370704225354 0.9736770422535213
C 0.7724845070422537 4.194670704225353 3.2772470422535216
H -0.2956954929577462 4.278220704225354 3.057857042253521
H 0.9298945070422537 3.612620704225354 4.190337042253521
H 1.2046345070422537 5.193640704225353 3.3918370422535213
N 2.876084507042253 -2.324759295774647 -2.4576629577464786
N 1.4527845070422536 3.504690704225353 2.1388470422535213
C -3.593905492957746 -3.637819295774647 0.8297870422535213
H -2.8952554929577463 -1.8680692957746468 1.7595270422535212
H -5.022615492957747 -1.2402792957746467 1.1579970422535213
H -4.898275492957747 -1.7933092957746464 -0.48931295774647876
H -3.883675492957746 0.07871070422535364 -1.2758929577464788
H -3.8751654929577466 -4.038529295774646 -0.1505529577464788
H -4.4603554929577465 -3.7321892957746465 1.4932570422535212
H -2.7953554929577464 -4.271929295774647 1.2313670422535212
H -5.648775492957746 1.147700704225353 0.9733970422535213
H -6.189795492957747 0.5254307042253537 -0.5943629577464788
H -5.2178854929577465 2.002970704225354 -0.5139729577464787
C 3.6710445070422537 1.0263707042253536 -0.27764295774647874
O 2.7356545070422538 1.6631507042253526 -0.7327029577464788
O 3.650814507042253 0.3883007042253537 0.7790570422535212
O 4.756604507042254 0.8696707042253538 -0.8334829577464786
O -6.124030815657387 2.4002073301031075 1.5151986787785494
H -5.916241984254876 2.4107286885126658 2.461602640869578
H -6.663189345953631 3.194778114477981 1.3850937514057124
O -0.5476124487184166 5.727507018459222 5.767343753716439
H 0.1517517103358158 5.307795018566763 5.244181286526141
H -0.6127414673410042 6.620675674921223 5.397249297736453
O 15.009715237822247 -4.467107780526578 4.023489241771364
H 14.849459040539436 -4.39973470081477 3.07020744908748
H 14.121178806947661 -4.479651010652536 4.409892687261516
O -8.944440828514182 -2.9385773185214297 -2.5653694107968747
H -8.455484453718737 -3.2311662495588127 -1.7816087726672856
H -9.846181348574106 -3.258188364123228 -2.411503370647063
O -3.5963071872247605 -6.195591488484676 -12.696886542499506
H -4.208743874990877 -6.090913316062761 -13.440479939858893
H -3.3747020574219686 -7.138855567980471 -12.707181545075441
O -1.224347836690999 -9.14448920481133 -3.101125570924847
H -1.2930033922094788 -10.10318040738058 -2.977979520591216
H -1.1266922961525756 -8.799281683189088 -2.2009827451924098
O -1.0456125314898892 1.1866599478158477 11.37647912010806
H -0.3994979472505644 0.5154087966759904 11.110161277997054
H -0.6835842712767999 1.546169934238765 12.200281312851729
O -0.3472974106464619 -2.107457235559739 4.386111855426654
H -1.250084045963165 -2.4555106059294087 4.333173217666879
H -0.46583885427253624 -1.1458727775897786 4.369826873582546
O 3.780880141251596 5.921949108748118 3.050063771060999
H 4.724688592969708 5.727783908909076 2.9476292137235087
H 3.6944878323126593 6.835046191795561 2.7374105603203294
O -6.529024683815838 -0.31451137195156015 -8.014155647631181
H -6.655933326138337 -1.178137235285111 -8.43488349503998
H -5.57291301615256 -0.26528859197254784 -7.864524296673965
O 4.01469686900709 -1.43460025196862 -11.79704829430034
H 4.017359361060582 -1.3933985691449329 -12.765171576412987
H 3.191579754250748 -0.9891160517913051 -11.546082186852399
O -1.6339628871785785 3.752420638344115 -4.51014611034501
H -1.6030998133853345 3.9349838139291107 -5.4612956855940125
H -1.7051866613565887 4.630029619885367 -4.105557932304716
O -10.528824920268665 0.9775946727995991 -2.8960116671117953
H -10.195635883204549 0.16267558128847828 -2.491216290691835
H -11.483691437044921 0.9458816776812614 -2.7341902674756575
O 12.00564650889822 -4.415113727207336 -2.4469333338235426
H 11.710089231961215 -4.176580098598459 -1.5554654650967636
H 12.488330108149501 -3.63180355613519 -2.7509130423712556
O -2.3197334342663547 -9.566809282498237 -4.518730555533807
H -1.4958468593269516 -9.225133985048176 -4.8974603532089205
H -2.444410898646287 -10.42001703576514 -4.960832358222999
O -8.746608260379524 -0.7710341538162861 5.61007959035674
H -9.170788321075042 -0.07246881454009202 6.130699509078915
H -8.980578194485648 -1.5865995929177918 6.078131968598259
O -0.29135026131685127 6.998682002844976 2.0006172649238194
H -0.3768737784777363 6.806864078142048 2.9465871210371604
H -0.4114907160032071 6.136412757796318 1.5751528545544304
O -5.825970462736328 -2.7139475561914934 -10.020142195275584
H -5.770638432510299 -2.720051557296965 -10.987545143638659
H -4.9387429205089965 -2.9775826850612908 -9.733287264275518
O 2.8226309580169873 3.6455010554841207 -3.958848248434064
H 2.6871038310005853 2.751836318504307 -4.308080395610525
H 2.2616578215012004 3.6758280677956225 -3.1693222154675134
O 5.427579086506004 -8.137630217526128 1.5721975882367638
H 5.473954803297057 -8.326663762908188 0.6229436872637915
H 6.30740548607195 -8.375268700140747 1.9014321588812257
O -6.854365494291334 -3.0134459775155342 -3.5732447914802634
H -7.251558451133579 -2.9377965412007896 -2.6926300773628027
H -7.527077135313002 -3.4769308847513107 -4.094399982472906
O 5.071138494955601 10.06128262357515 3.9767807314516275
H 4.880268667206872 11.008707340417427 3.9066204031207064
H 4.279129014554105 9.635585918549626 3.6155810047289108
O -5.957898275393115 -1.5855054415327166 13.574827523477175
H -5.699236430885815 -1.7581449911914389 14.492573127111275
H -5.266842673088855 -2.0185204332755164 13.05147093782082
O -4.707845421147855 -1.9492931333706318 -6.903228192297801
H -4.343235758912051 -1.055295923474341 -6.820789488996849
H -3.946542891655332 -2.4895146218733966 -7.1631149873608475
C 11.484667045723853 -2.0248531132221865 2.228331693597333
O 11.30601109821744 -1.8102105966919266 3.3923028701382916
O 11.663322993230267 -2.2394956297524473 1.0643605170563748