146

C -5.3564454929577465 1.0091607042253532 -0.0734429577464788
C -4.079135492957747 0.16955070422535368 -0.19788295774647868
C -4.333545492957747 -1.2789292957746463 0.3017270422535212
C -3.1403854929577464 -2.1745492957746464 0.7330270422535212
C -2.905235492957746 0.902300704225353 0.41966704225352136
C -2.7423854929577463 1.056130704225354 1.8024770422535212
C -1.8861754929577463 1.3499307042253532 -0.4326129577464788
C -1.5304554929577463 1.5279207042253526 2.3254170422535214
H -3.5237954929577464 0.7301007042253529 2.484817042253521
C -0.6776454929577462 1.8010507042253527 0.08546704225352131
H -1.9759254929577463 1.2426607042253535 -1.5115229577464788
C -0.4680254929577463 1.8513207042253539 1.4698070422535212
H -1.3950654929577464 1.5446707042253527 3.404047042253521
H 0.1461845070422536 1.9972507042253538 -0.6030529577464789
C -1.8679654929577463 -2.0866092957746467 -0.08765295774647863
C -0.6628654929577462 -1.814079295774647 0.5787970422535212
C -1.8438954929577462 -2.213429295774647 -1.4808029577464787
C 0.5129345070422537 -1.5763292957746469 -0.13022295774647863
H -0.6401854929577462 -1.7032692957746463 1.6609470422535213
C -0.6547954929577462 -1.9962392957746466 -2.1933129577464787
H -2.7578654929577464 -2.4351492957746466 -2.026182957746479
C 0.5308845070422537 -1.645769295774647 -1.5261029577464789
H 1.4044045070422537 -1.2610992957746463 0.41551704225352126
H -0.6795654929577464 -2.0467992957746466 -3.2793129577464786
C 1.7843245070422535 -1.2521692957746469 -2.2771629577464787
H 1.4981245070422535 -0.9384492957746469 -3.290282957746479
H 2.241984507042254 -0.38631929577464685 -1.8135029577464787
C 0.9385645070422537 2.0647807042253534 1.9815670422535212
H 1.0508945070422537 1.5807407042253532 2.9609770422535213
H 1.6053245070422537 1.5496207042253536 1.3096170422535214
C 3.9676945070422533 -1.6881692957746468 -3.314052957746479
H 4.795084507042254 -2.398849295774647 -3.4044129577464783
H 3.548404507042253 -1.4816192957746468 -4.303802957746479
H 4.307714507042253 -0.7637192957746466 -2.851282957746479
C 2.344694507042253 -3.565079295774647 -3.101282957746479
H 1.6334345070422536 -4.047909295774646 -2.4251929577464786
H 1.8561845070422536 -3.293109295774647 -4.041792957746479
H 3.1808045070422537 -4.243519295774647 -3.298122957746479
C 3.5156645070422536 -2.648489295774647 -1.1110629577464786
H 3.9311845070422535 -1.748249295774647 -0.6771029577464787
H 2.767184507042254 -3.1044092957746465 -0.45972295774647876
H 4.319224507042254 -3.371819295774647 -1.2863129577464787
C 2.963994507042253 3.381090704225353 2.401027042253521
H 3.3337945070422537 4.369820704225353 2.6912870422535216
H 3.120994507042253 2.671350704225353 3.2183370422535216
H 3.4665445070422534 3.0664207042253535 1.4881370422535212
C 1.2973745070422538 4.282440704225354 0.8488370422535213
H 1.7592145070422538 3.7367207042253527 0.02653704225352116
H 0.23311450704225378 4.4484607042253534 0.6605570422535213
H 1.7921845070422535 5.251370704225354 0.9736770422535213
C 0.7724845070422537 4.194670704225353 3.2772470422535216
H -0.2956954929577462 4.278220704225354 3.057857042253521
H 0.9298945070422537 3.612620704225354 4.190337042253521
H 1.2046345070422537 5.193640704225353 3.3918370422535213
N 2.876084507042253 -2.324759295774647 -2.4576629577464786
N 1.4527845070422536 3.504690704225353 2.1388470422535213
C -3.593905492957746 -3.637819295774647 0.8297870422535213
H -2.8952554929577463 -1.8680692957746468 1.7595270422535212
H -5.022615492957747 -1.2402792957746467 1.1579970422535213
H -4.898275492957747 -1.7933092957746464 -0.48931295774647876
H -3.883675492957746 0.07871070422535364 -1.2758929577464788
H -3.8751654929577466 -4.038529295774646 -0.1505529577464788
H -4.4603554929577465 -3.7321892957746465 1.4932570422535212
H -2.7953554929577464 -4.271929295774647 1.2313670422535212
H -5.648775492957746 1.147700704225353 0.9733970422535213
H -6.189795492957747 0.5254307042253537 -0.5943629577464788
H -5.2178854929577465 2.002970704225354 -0.5139729577464787
C 3.6710445070422537 1.0263707042253536 -0.27764295774647874
O 2.7356545070422538 1.6631507042253526 -0.7327029577464788
O 3.650814507042253 0.3883007042253537 0.7790570422535212
O 4.756604507042254 0.8696707042253538 -0.8334829577464786
O -1.5458874409824281 1.3676634662392546 16.95337222789636
H -1.1350020534844003 0.8740497575414032 17.678965820636915
H -1.2867424651112287 0.8760194308547264 16.159588902138296
O -5.842463274971712 -4.190675358949472 -0.8431717010064248
H -5.376783964594269 -4.248118644880105 0.004655171466889874
H -5.861975104467437 -3.241181006450521 -1.0356339242668038
O 6.877435739065884 -11.328338028808723 -3.4110122629003423
H 7.743053204682984 -11.763165575593733 -3.435481931381122
H 6.298469919266854 -11.931751961319552 -3.900555059656919
O -4.32230496584197 -7.000086387126271 2.272284169195435
H -4.276685270965292 -7.0465394532764964 1.305470685122833
H -3.4562200060403243 -7.322884179607209 2.563248723522616
O 8.039199978175317 -2.5475823389761403 12.142985384754127
H 8.005441300390212 -2.383670018479032 13.09742787111119
H 8.927401832402447 -2.2569616739579073 11.886862290301776
O -6.307464118521645 -3.3416840469115248 -6.779835925084462
H -6.732606805539659 -3.9807976006063033 -7.371236735076076
H -6.983027975722138 -2.6596891260331463 -6.647705886711321
O 6.057588387463023 -8.353893009651562 -0.3507062218288334
H 6.386289301770715 -9.255993674338425 -0.4816163307005765
H 5.3617803715294645 -8.452818042677732 0.316397208759988
O -2.2836207752880866 -2.746346152951184 4.4752611968110685
H -2.3248446625942254 -2.044694265262658 3.8082135399540045
H -2.566143950158835 -2.309170612400571 5.292586191354385
O 7.919917897538198 4.023730811145349 -9.679877806248133
H 7.790053576660176 3.996496350709215 -10.639753266517664
H 8.676288652733232 4.617999194739381 -9.562786759424618
O 10.929474556833364 5.171189732217531 -3.963137906840303
H 11.165086468799124 5.803812306825911 -4.658294768228943
H 10.616742969852956 5.729071127588483 -3.235175512548075
O -5.208672217962113 -8.953077961038236 10.536002249967083
H -4.848067512857404 -9.645137442442575 11.110445700408208
H -4.692575839809065 -8.165776136122483 10.765702727201305
O 4.704942458211292 9.870830087738332 -3.728879874192706
H 5.1804491053621335 9.02898567539579 -3.664391341700456
H 3.7721818341131375 9.619086558874898 -3.6544167416544786
O 9.913832500888587 1.5201788794037552 -0.8648276278662228
H 10.136142774601286 1.716517858707348 0.05766708990066438
H 9.380072244402482 2.279342737088712 -1.143632523950894
O -0.5387276566289128 1.7382289795510695 -9.85279055134312
H -0.7711282242761777 2.560457053810209 -10.309844516381535
H 0.12452889159962055 1.3295500468357053 -10.429014661812824
O 2.9489759832217284 -2.0610215014341136 5.917051523737249
H 3.8709792768015423 -2.3273921656013017 6.050931891226688
H 2.4856024188454793 -2.42739920541218 6.685175382346659
O 9.032560183268469 1.107236853249057 2.4754769070554214
H 9.074763403383905 0.22284952051035556 2.081718998178388
H 9.95457266547836 1.3106909758887093 2.693333159961054
O 0.11132986593057925 9.4934104677378 0.9162149556160639
H -0.18384747131401724 8.69553760367219 0.4522789802219054
H 0.8768861903755423 9.195581838423934 1.4302028601073484
O -2.90160739168001 0.10221375884394046 -8.642130214973209
H -1.9786101814551391 0.14267224771347609 -8.349886108966775
H -3.3872189512861337 0.5756583150326517 -7.950036572687585
O -3.920055226006101 -4.443400543585845 -10.841674498219437
H -3.921491821563731 -4.136540161139617 -11.760805608985557
H -4.682339363039637 -3.9961243195445415 -10.444397745647139
O -5.903522165402506 0.3788831076473671 10.023316998247825
H -5.587475986465424 -0.3617549376014459 9.484301733520297
H -5.639323578843492 0.14168393669638174 10.924925341410413
O -5.027311628874976 2.6596431559290066 -8.588920963274049
H -4.676133003030878 3.050865466359633 -7.774927085243279
H -4.454649577409763 3.0147482353516826 -9.285283298326618
O -0.003586891921603552 -4.811485535958959 10.886721483020835
H -0.7870188019498112 -4.245014599808733 10.821052024772426
H -0.18518494492670534 -5.374003216567081 11.65454825414048
O -7.732446912413314 -2.1652799271136285 5.650483509315948
H -8.003390365768984 -2.981386239982327 5.203798510598101
H -8.179027783019125 -2.209181366667692 6.50932000942178
O -9.847024919315986 4.871842454367632 1.1867980119752182
H -9.178928010505247 5.4138615373600585 0.7408953420913242
H -10.526251259308262 5.50961385167216 1.4529956230481313
C -1.807834736389693 4.7585187698131595 5.379097192673905
O -1.6202261786594425 5.816287444739668 5.9070618853481385
O -1.995443294119943 3.700750094886653 4.851132499999673