146

C -5.3564454929577465 1.0091607042253532 -0.0734429577464788
C -4.079135492957747 0.16955070422535368 -0.19788295774647868
C -4.333545492957747 -1.2789292957746463 0.3017270422535212
C -3.1403854929577464 -2.1745492957746464 0.7330270422535212
C -2.905235492957746 0.902300704225353 0.41966704225352136
C -2.7423854929577463 1.056130704225354 1.8024770422535212
C -1.8861754929577463 1.3499307042253532 -0.4326129577464788
C -1.5304554929577463 1.5279207042253526 2.3254170422535214
H -3.5237954929577464 0.7301007042253529 2.484817042253521
C -0.6776454929577462 1.8010507042253527 0.08546704225352131
H -1.9759254929577463 1.2426607042253535 -1.5115229577464788
C -0.4680254929577463 1.8513207042253539 1.4698070422535212
H -1.3950654929577464 1.5446707042253527 3.404047042253521
H 0.1461845070422536 1.9972507042253538 -0.6030529577464789
C -1.8679654929577463 -2.0866092957746467 -0.08765295774647863
C -0.6628654929577462 -1.814079295774647 0.5787970422535212
C -1.8438954929577462 -2.213429295774647 -1.4808029577464787
C 0.5129345070422537 -1.5763292957746469 -0.13022295774647863
H -0.6401854929577462 -1.7032692957746463 1.6609470422535213
C -0.6547954929577462 -1.9962392957746466 -2.1933129577464787
H -2.7578654929577464 -2.4351492957746466 -2.026182957746479
C 0.5308845070422537 -1.645769295774647 -1.5261029577464789
H 1.4044045070422537 -1.2610992957746463 0.41551704225352126
H -0.6795654929577464 -2.0467992957746466 -3.2793129577464786
C 1.7843245070422535 -1.2521692957746469 -2.2771629577464787
H 1.4981245070422535 -0.9384492957746469 -3.290282957746479
H 2.241984507042254 -0.38631929577464685 -1.8135029577464787
C 0.9385645070422537 2.0647807042253534 1.9815670422535212
H 1.0508945070422537 1.5807407042253532 2.9609770422535213
H 1.6053245070422537 1.5496207042253536 1.3096170422535214
C 3.9676945070422533 -1.6881692957746468 -3.314052957746479
H 4.795084507042254 -2.398849295774647 -3.4044129577464783
H 3.548404507042253 -1.4816192957746468 -4.303802957746479
H 4.307714507042253 -0.7637192957746466 -2.851282957746479
C 2.344694507042253 -3.565079295774647 -3.101282957746479
H 1.6334345070422536 -4.047909295774646 -2.4251929577464786
H 1.8561845070422536 -3.293109295774647 -4.041792957746479
H 3.1808045070422537 -4.243519295774647 -3.298122957746479
C 3.5156645070422536 -2.648489295774647 -1.1110629577464786
H 3.9311845070422535 -1.748249295774647 -0.6771029577464787
H 2.767184507042254 -3.1044092957746465 -0.45972295774647876
H 4.319224507042254 -3.371819295774647 -1.2863129577464787
C 2.963994507042253 3.381090704225353 2.401027042253521
H 3.3337945070422537 4.369820704225353 2.6912870422535216
H 3.120994507042253 2.671350704225353 3.2183370422535216
H 3.4665445070422534 3.0664207042253535 1.4881370422535212
C 1.2973745070422538 4.282440704225354 0.8488370422535213
H 1.7592145070422538 3.7367207042253527 0.02653704225352116
H 0.23311450704225378 4.4484607042253534 0.6605570422535213
H 1.7921845070422535 5.251370704225354 0.9736770422535213
C 0.7724845070422537 4.194670704225353 3.2772470422535216
H -0.2956954929577462 4.278220704225354 3.057857042253521
H 0.9298945070422537 3.612620704225354 4.190337042253521
H 1.2046345070422537 5.193640704225353 3.3918370422535213
N 2.876084507042253 -2.324759295774647 -2.4576629577464786
N 1.4527845070422536 3.504690704225353 2.1388470422535213
C -3.593905492957746 -3.637819295774647 0.8297870422535213
H -2.8952554929577463 -1.8680692957746468 1.7595270422535212
H -5.022615492957747 -1.2402792957746467 1.1579970422535213
H -4.898275492957747 -1.7933092957746464 -0.48931295774647876
H -3.883675492957746 0.07871070422535364 -1.2758929577464788
H -3.8751654929577466 -4.038529295774646 -0.1505529577464788
H -4.4603554929577465 -3.7321892957746465 1.4932570422535212
H -2.7953554929577464 -4.271929295774647 1.2313670422535212
H -5.648775492957746 1.147700704225353 0.9733970422535213
H -6.189795492957747 0.5254307042253537 -0.5943629577464788
H -5.2178854929577465 2.002970704225354 -0.5139729577464787
C 3.6710445070422537 1.0263707042253536 -0.27764295774647874
O 2.7356545070422538 1.6631507042253526 -0.7327029577464788
O 3.650814507042253 0.3883007042253537 0.7790570422535212
O 4.756604507042254 0.8696707042253538 -0.8334829577464786
O -0.4695062740929741 4.374663177797247 10.553600620041104
H -0.7624905624106657 4.866945779078816 9.772073010692317
H -1.2173641924630592 3.7933868628540313 10.758022546255484
O -4.113830002087539 10.736149189469293 -5.511421293179076
H -3.9701602761392536 10.783561161371328 -4.554301409535284
H -4.26854953333279 11.656888922142866 -5.770770778675853
O -11.568525050659892 -3.762594287807035 -0.5210442269857372
H -10.7996086698018 -4.091993590734125 -0.03193170886823449
H -11.433749750898524 -4.09569722440561 -1.4209553317642263
O 3.8511792594755545 -12.488078647750143 -6.945612457327396
H 4.7104773944412965 -12.932932967911725 -6.893856240522331
H 3.443849110854854 -12.664852729356017 -6.084337229309639
O -8.421600858661282 6.082113097471326 8.853488027150762
H -9.381526409387618 5.975125137640597 8.775617169867692
H -8.232552196241866 6.880761618466212 8.33833456705357
O -7.920832859311193 -0.35731718346187824 -6.913481348631351
H -8.143662248743544 -0.8594777134414242 -7.711697623982754
H -6.992183410274054 -0.11255374337774471 -7.042566605346446
O 2.820148648854289 7.113525968976252 -6.011340053915756
H 2.5256597700396655 6.851078295573613 -5.1262610315228105
H 3.3653979806462635 6.369021076754544 -6.306937036204728
O -0.11245494923100607 -9.25616954288354 -4.420722477840463
H 0.5373523567259808 -9.929818323166995 -4.169893566333957
H -0.07521171572572749 -9.244072576443273 -5.388931416686316
O -2.8670753892496803 3.6637694235028366 -6.861343268323542
H -3.4550569083819083 3.2243489506441136 -6.228765416915847
H -1.9790234034196448 3.397968731689387 -6.579074589588509
O -9.996616507620537 -0.05305695859281556 -1.9046789415513432
H -9.226379078339814 0.5333341925975716 -1.9476565780689383
H -10.639372797851223 0.44319178266180614 -1.3759413105167364
O -12.1916380362173 0.8981713414664029 3.3476934341518314
H -13.032122823296675 1.2616679422787787 3.6645891595663396
H -12.323581669318406 0.8018191888721551 2.3925656496776613
O 9.230019044855304 2.144532131827125 1.8231782227463862
H 9.40916689233257 1.8254240958769885 0.9259360775947498
H 10.013607025042882 1.878145887443425 2.32715261734268
O 2.892928738463807 7.901591004317862 -0.40240149879815834
H 2.53932735737353 7.813574512485128 0.49547740025032017
H 2.105632048336079 8.03045215331273 -0.9524202896532038
O 6.309371824856374 -6.5197509182939255 2.320949141708058
H 6.353298576967257 -6.546305344395679 3.288591978607808
H 6.6944480056782405 -5.660353030666326 2.092665217602865
O 5.048648010528897 -3.337810565210987 -8.909182221406944
H 5.54813607905381 -3.8645406086032392 -8.2672830956175
H 4.866942150532312 -2.509067155220041 -8.441069750798139
O 8.39504084136543 0.26019509868791957 -5.627465886479504
H 7.549457809029192 0.5297978077348571 -6.0164017058631245
H 8.523846008178714 -0.6440184571493699 -5.951146313354972
O 9.679545350498678 2.2468018146003073 -6.466976937067779
H 9.583773577550831 2.2361809104283212 -5.502776584028538
H 9.13970647812685 1.498952983315846 -6.764059521078989
O -3.515978659286519 4.561142832791616 6.9807841784410085
H -3.3758336113620526 5.41508795073966 7.416793877845681
H -2.772392386233313 4.48858062517293 6.36371357887209
O -5.033066398164189 -8.520490596217815 -10.08639357592505
H -5.004593153590863 -8.851750140084045 -10.996571440872886
H -5.9677221819702275 -8.591267149284317 -9.840688082225896
O -14.590810262034513 -4.158804734319773 -8.144516642910856
H -14.697502301051163 -4.573391319221378 -9.013827938897567
H -14.181420731767556 -4.8508913041592905 -7.603796441091498
O 9.045758942622603 -10.703902206265672 4.155259160043867
H 8.117431484331075 -10.977588396002428 4.202917911909264
H 9.539032243495196 -11.533689194901738 4.239502548131877
O -5.123839935030056 5.17507767380086 -8.899392201413356
H -5.5465857677159 5.826813022939959 -8.320173458165788
H -4.7796505244641345 4.506850284503746 -8.287863174998876
O -1.0338584645299687 -8.171059791780058 2.5806163283653194
H -0.4004964522322427 -7.437710830021919 2.5850002269080563
H -0.7954597049079074 -8.690900900269996 3.3628523526154277
O -2.9810554764661057 3.2505195269604177 4.544704526602099
H -2.8643034835776873 2.996984466352668 5.4726357213030905
H -3.919637078158778 3.4830806612022016 4.481920451358513
C -7.97807675123594 -4.328692825882565 2.8387395099575805
O -7.985909060757142 -4.037310993717461 1.6777685628139094
O -7.970244441714739 -4.6200746580476695 3.9997104571012505