146

C -5.3564454929577465 1.0091607042253532 -0.0734429577464788
C -4.079135492957747 0.16955070422535368 -0.19788295774647868
C -4.333545492957747 -1.2789292957746463 0.3017270422535212
C -3.1403854929577464 -2.1745492957746464 0.7330270422535212
C -2.905235492957746 0.902300704225353 0.41966704225352136
C -2.7423854929577463 1.056130704225354 1.8024770422535212
C -1.8861754929577463 1.3499307042253532 -0.4326129577464788
C -1.5304554929577463 1.5279207042253526 2.3254170422535214
H -3.5237954929577464 0.7301007042253529 2.484817042253521
C -0.6776454929577462 1.8010507042253527 0.08546704225352131
H -1.9759254929577463 1.2426607042253535 -1.5115229577464788
C -0.4680254929577463 1.8513207042253539 1.4698070422535212
H -1.3950654929577464 1.5446707042253527 3.404047042253521
H 0.1461845070422536 1.9972507042253538 -0.6030529577464789
C -1.8679654929577463 -2.0866092957746467 -0.08765295774647863
C -0.6628654929577462 -1.814079295774647 0.5787970422535212
C -1.8438954929577462 -2.213429295774647 -1.4808029577464787
C 0.5129345070422537 -1.5763292957746469 -0.13022295774647863
H -0.6401854929577462 -1.7032692957746463 1.6609470422535213
C -0.6547954929577462 -1.9962392957746466 -2.1933129577464787
H -2.7578654929577464 -2.4351492957746466 -2.026182957746479
C 0.5308845070422537 -1.645769295774647 -1.5261029577464789
H 1.4044045070422537 -1.2610992957746463 0.41551704225352126
H -0.6795654929577464 -2.0467992957746466 -3.2793129577464786
C 1.7843245070422535 -1.2521692957746469 -2.2771629577464787
H 1.4981245070422535 -0.9384492957746469 -3.290282957746479
H 2.241984507042254 -0.38631929577464685 -1.8135029577464787
C 0.9385645070422537 2.0647807042253534 1.9815670422535212
H 1.0508945070422537 1.5807407042253532 2.9609770422535213
H 1.6053245070422537 1.5496207042253536 1.3096170422535214
C 3.9676945070422533 -1.6881692957746468 -3.314052957746479
H 4.795084507042254 -2.398849295774647 -3.4044129577464783
H 3.548404507042253 -1.4816192957746468 -4.303802957746479
H 4.307714507042253 -0.7637192957746466 -2.851282957746479
C 2.344694507042253 -3.565079295774647 -3.101282957746479
H 1.6334345070422536 -4.047909295774646 -2.4251929577464786
H 1.8561845070422536 -3.293109295774647 -4.041792957746479
H 3.1808045070422537 -4.243519295774647 -3.298122957746479
C 3.5156645070422536 -2.648489295774647 -1.1110629577464786
H 3.9311845070422535 -1.748249295774647 -0.6771029577464787
H 2.767184507042254 -3.1044092957746465 -0.45972295774647876
H 4.319224507042254 -3.371819295774647 -1.2863129577464787
C 2.963994507042253 3.381090704225353 2.401027042253521
H 3.3337945070422537 4.369820704225353 2.6912870422535216
H 3.120994507042253 2.671350704225353 3.2183370422535216
H 3.4665445070422534 3.0664207042253535 1.4881370422535212
C 1.2973745070422538 4.282440704225354 0.8488370422535213
H 1.7592145070422538 3.7367207042253527 0.02653704225352116
H 0.23311450704225378 4.4484607042253534 0.6605570422535213
H 1.7921845070422535 5.251370704225354 0.9736770422535213
C 0.7724845070422537 4.194670704225353 3.2772470422535216
H -0.2956954929577462 4.278220704225354 3.057857042253521
H 0.9298945070422537 3.612620704225354 4.190337042253521
H 1.2046345070422537 5.193640704225353 3.3918370422535213
N 2.876084507042253 -2.324759295774647 -2.4576629577464786
N 1.4527845070422536 3.504690704225353 2.1388470422535213
C -3.593905492957746 -3.637819295774647 0.8297870422535213
H -2.8952554929577463 -1.8680692957746468 1.7595270422535212
H -5.022615492957747 -1.2402792957746467 1.1579970422535213
H -4.898275492957747 -1.7933092957746464 -0.48931295774647876
H -3.883675492957746 0.07871070422535364 -1.2758929577464788
H -3.8751654929577466 -4.038529295774646 -0.1505529577464788
H -4.4603554929577465 -3.7321892957746465 1.4932570422535212
H -2.7953554929577464 -4.271929295774647 1.2313670422535212
H -5.648775492957746 1.147700704225353 0.9733970422535213
H -6.189795492957747 0.5254307042253537 -0.5943629577464788
H -5.2178854929577465 2.002970704225354 -0.5139729577464787
C 3.6710445070422537 1.0263707042253536 -0.27764295774647874
O 2.7356545070422538 1.6631507042253526 -0.7327029577464788
O 3.650814507042253 0.3883007042253537 0.7790570422535212
O 4.756604507042254 0.8696707042253538 -0.8334829577464786
O -3.6429002405868056 3.7081811150799076 0.21970031316737582
H -3.9455356505024204 2.85765253393516 -0.1324080483083363
H -2.8877969797608296 3.9387409211866924 -0.3421031983898042
O 5.293903052206825 3.0170829963521113 5.824863283994348
H 4.8856144103148385 2.537832734807682 5.088258282238593
H 4.96582904480083 3.9233665826869384 5.7249660813075085
O -0.36759184645487153 -5.013220080771953 -6.4604556710575425
H -0.5811388476334136 -4.873945764574798 -5.525593274747011
H -0.9680760022636394 -5.722626687127319 -6.734541405421799
O 0.26427691768375694 -3.7913773750542967 4.272473057721299
H 0.43479577914953726 -3.777932104969533 3.3186859224040086
H -0.5406703235388943 -3.261519256861051 4.373825204875439
O 3.846977162797938 -12.934444539653448 7.234453436554551
H 4.266526823856062 -13.684247461645331 6.786412124867282
H 3.6945802456862133 -12.292934232142049 6.524381856140669
O 4.14106200879164 8.869224405663717 -10.456208297966432
H 4.346428852476774 8.921164940125484 -11.401773735836617
H 4.142560270584756 7.918631111552413 -10.26823997961938
O 8.725056150995858 -9.801404846058848 2.904032416483086
H 9.325851274040081 -10.351838451681012 2.3795942191441997
H 8.874791989229834 -10.094327683848912 3.8154803492523595
O -0.9891352653083335 4.878189555104857 -2.6250022369342867
H -0.645084653880975 4.298902079150598 -1.9285666305218876
H -0.8223443572455347 4.3857207015847655 -3.4426923772687488
O -7.540564436928234 -3.6067983133645063 2.83854984592859
H -7.70765381449235 -4.547223759095056 3.001793460896326
H -8.400672352269638 -3.1866724461462477 2.9891173522543877
O 12.56524127945769 1.8076385225090656 1.0257834392203407
H 11.95403961336974 2.5591051956076005 0.9993690587896111
H 13.428899322818236 2.214138964713149 1.192559093698196
O 5.3462466580262085 -1.0628679534113834 6.686732273171589
H 5.189868131667216 -2.0107043607997026 6.559770632417401
H 6.22632825376451 -1.022831943646989 7.090236234818644
O -1.7273756317514604 5.097782116373012 -4.296769869381958
H -1.4611259166526276 5.018205952706519 -5.225072664964259
H -2.3630055184159144 5.82917539218247 -4.297453667336809
O 11.017909519514209 0.3472464495601293 -5.417464279592176
H 11.39632906265645 -0.16191751771680662 -6.149938211343219
H 11.173630167083449 1.2700299042249081 -5.66882800015971
O 12.482971522088157 -3.1505395651220267 4.701596292704828
H 13.151282700408222 -2.671557222713165 5.214337398422876
H 11.641895441342367 -2.7829931023 5.0121805298520385
O 7.387667429374302 -1.3206799006155456 -2.232817881927643
H 7.544401239638862 -1.8689527912039714 -3.0162709482090673
H 6.832198034279004 -1.8762934958662152 -1.6656237104263063
O 7.157966877734649 6.89754981356462 -7.905420586407492
H 7.242759991022081 6.591799778450436 -8.82100477197794
H 7.868344203539753 6.43388524756477 -7.437081852670725
O 1.4657495985672302 8.090751688363238 -3.898072550859936
H 1.361227313236061 7.986609477340993 -2.9403686046153004
H 0.7569510489288391 8.703352597360702 -4.145634031357195
O -0.03651191166979295 -1.4183365297209531 6.380205438262282
H -0.4150209184885152 -1.3988428877301513 7.272011631658044
H -0.7564081319745981 -1.7582300628999716 5.82777104180064
O -1.9118219884270398 -1.5543413153218097 -9.995784776354498
H -2.636260272146618 -0.9655573204570643 -9.735996521476523
H -2.1592889241690116 -2.4111910411078927 -9.616930440976386
O -3.1037217171561204 -8.231219856095818 -10.721494523251593
H -3.313979612909464 -8.170739582447265 -11.665476043554174
H -2.4368629176770122 -7.541447160852596 -10.58557206464308
O -8.460739899725684 9.033946139092999 -0.2312198878783711
H -8.917348167638297 9.455822516767235 -0.9745210169871004
H -7.865279736874473 9.723235047694342 0.09934015089881498
O -0.4458093256098181 7.450079403326303 -3.4621204464329547
H -0.48740937914617855 6.567595156165529 -3.860188714395697
H -0.735468200099015 7.30854552611192 -2.548321867789765
O -8.346836397187925 -9.111361486198106 -1.9125807364113232
H -8.712601357284642 -9.057148503794961 -2.8082616524770856
H -7.969809420884795 -8.231839009351907 -1.7600919953120282
O -6.0432838240126365 -7.616316264353099 9.104592676673095
H -6.615323946042131 -8.398422749178922 9.097744167209099
H -6.44337984045017 -7.027932394109422 8.446801263558049
C -6.84502360876339 -0.6634689320340899 -10.97160994096541
O -6.630013894645593 -0.8863217811142012 -9.815354913823104
O -7.060033322881188 -0.44061608295397825 -12.127864968107719