146

C -5.3564454929577465 1.0091607042253532 -0.0734429577464788
C -4.079135492957747 0.16955070422535368 -0.19788295774647868
C -4.333545492957747 -1.2789292957746463 0.3017270422535212
C -3.1403854929577464 -2.1745492957746464 0.7330270422535212
C -2.905235492957746 0.902300704225353 0.41966704225352136
C -2.7423854929577463 1.056130704225354 1.8024770422535212
C -1.8861754929577463 1.3499307042253532 -0.4326129577464788
C -1.5304554929577463 1.5279207042253526 2.3254170422535214
H -3.5237954929577464 0.7301007042253529 2.484817042253521
C -0.6776454929577462 1.8010507042253527 0.08546704225352131
H -1.9759254929577463 1.2426607042253535 -1.5115229577464788
C -0.4680254929577463 1.8513207042253539 1.4698070422535212
H -1.3950654929577464 1.5446707042253527 3.404047042253521
H 0.1461845070422536 1.9972507042253538 -0.6030529577464789
C -1.8679654929577463 -2.0866092957746467 -0.08765295774647863
C -0.6628654929577462 -1.814079295774647 0.5787970422535212
C -1.8438954929577462 -2.213429295774647 -1.4808029577464787
C 0.5129345070422537 -1.5763292957746469 -0.13022295774647863
H -0.6401854929577462 -1.7032692957746463 1.6609470422535213
C -0.6547954929577462 -1.9962392957746466 -2.1933129577464787
H -2.7578654929577464 -2.4351492957746466 -2.026182957746479
C 0.5308845070422537 -1.645769295774647 -1.5261029577464789
H 1.4044045070422537 -1.2610992957746463 0.41551704225352126
H -0.6795654929577464 -2.0467992957746466 -3.2793129577464786
C 1.7843245070422535 -1.2521692957746469 -2.2771629577464787
H 1.4981245070422535 -0.9384492957746469 -3.290282957746479
H 2.241984507042254 -0.38631929577464685 -1.8135029577464787
C 0.9385645070422537 2.0647807042253534 1.9815670422535212
H 1.0508945070422537 1.5807407042253532 2.9609770422535213
H 1.6053245070422537 1.5496207042253536 1.3096170422535214
C 3.9676945070422533 -1.6881692957746468 -3.314052957746479
H 4.795084507042254 -2.398849295774647 -3.4044129577464783
H 3.548404507042253 -1.4816192957746468 -4.303802957746479
H 4.307714507042253 -0.7637192957746466 -2.851282957746479
C 2.344694507042253 -3.565079295774647 -3.101282957746479
H 1.6334345070422536 -4.047909295774646 -2.4251929577464786
H 1.8561845070422536 -3.293109295774647 -4.041792957746479
H 3.1808045070422537 -4.243519295774647 -3.298122957746479
C 3.5156645070422536 -2.648489295774647 -1.1110629577464786
H 3.9311845070422535 -1.748249295774647 -0.6771029577464787
H 2.767184507042254 -3.1044092957746465 -0.45972295774647876
H 4.319224507042254 -3.371819295774647 -1.2863129577464787
C 2.963994507042253 3.381090704225353 2.401027042253521
H 3.3337945070422537 4.369820704225353 2.6912870422535216
H 3.120994507042253 2.671350704225353 3.2183370422535216
H 3.4665445070422534 3.0664207042253535 1.4881370422535212
C 1.2973745070422538 4.282440704225354 0.8488370422535213
H 1.7592145070422538 3.7367207042253527 0.02653704225352116
H 0.23311450704225378 4.4484607042253534 0.6605570422535213
H 1.7921845070422535 5.251370704225354 0.9736770422535213
C 0.7724845070422537 4.194670704225353 3.2772470422535216
H -0.2956954929577462 4.278220704225354 3.057857042253521
H 0.9298945070422537 3.612620704225354 4.190337042253521
H 1.2046345070422537 5.193640704225353 3.3918370422535213
N 2.876084507042253 -2.324759295774647 -2.4576629577464786
N 1.4527845070422536 3.504690704225353 2.1388470422535213
C -3.593905492957746 -3.637819295774647 0.8297870422535213
H -2.8952554929577463 -1.8680692957746468 1.7595270422535212
H -5.022615492957747 -1.2402792957746467 1.1579970422535213
H -4.898275492957747 -1.7933092957746464 -0.48931295774647876
H -3.883675492957746 0.07871070422535364 -1.2758929577464788
H -3.8751654929577466 -4.038529295774646 -0.1505529577464788
H -4.4603554929577465 -3.7321892957746465 1.4932570422535212
H -2.7953554929577464 -4.271929295774647 1.2313670422535212
H -5.648775492957746 1.147700704225353 0.9733970422535213
H -6.189795492957747 0.5254307042253537 -0.5943629577464788
H -5.2178854929577465 2.002970704225354 -0.5139729577464787
C 3.6710445070422537 1.0263707042253536 -0.27764295774647874
O 2.7356545070422538 1.6631507042253526 -0.7327029577464788
O 3.650814507042253 0.3883007042253537 0.7790570422535212
O 4.756604507042254 0.8696707042253538 -0.8334829577464786
O 5.568017452484737 7.3652072106141215 -2.9400313217420675
H 5.771207554775717 7.7846723026920355 -3.789578363264224
H 6.222506913064799 6.6543289672815735 -2.8675219192755663
O 4.914814972670561 -4.3386845218491095 3.153545957877281
H 4.456756060639588 -3.7177511480505223 2.5673794838171333
H 5.326055900792706 -4.972919682424708 2.5472550999329444
O -6.2708095566161495 6.66204908431995 3.080383570923658
H -6.351170512191867 7.561078811688867 3.4328818305306092
H -5.89488057592017 6.789943495126671 2.196481785962634
O 0.14747370096925394 4.3202305146394595 -10.395004305759535
H 0.30299978458623755 4.993869523764755 -9.716042245258762
H 0.9401447702680139 3.7640609334467334 -10.35881152812826
O -2.6721440668777445 -11.17404142104203 -1.784715126478733
H -2.443073957741022 -11.66374692565591 -2.5888810053563147
H -2.5468083683151077 -10.245636870523416 -2.0323396356496644
O -3.433312744193681 1.133025370773181 5.485923825788703
H -2.544299232384589 0.9738720076168347 5.83705420003293
H -3.27654612407675 1.4244266348341252 4.57517058016133
O -2.7863543366171166 -7.235224211202578 0.8820303868092207
H -3.0277543403023337 -7.311044183943874 1.817415188296976
H -2.1081735129497536 -7.916389954226695 0.759368472425582
O 4.708643232422938 -6.664211710161581 -0.29282336855997215
H 4.410348352982108 -7.558113910652052 -0.06715463400049604
H 4.025258511734012 -6.088006592637285 0.08125540705785017
O -1.3027229086834669 4.426156540296057 6.288321129885366
H -1.0646418558756108 5.055472976252388 6.985634253689247
H -1.9964345397638659 3.8822987182582462 6.6907447706075045
O 2.4850160304410496 4.562039427655968 -7.496061272940698
H 2.133631086462622 5.347995137897575 -7.051348332288091
H 2.9862235797011034 4.920652230232087 -8.243824467202913
O -5.256079093070323 13.597564400303598 -0.09788818702258872
H -5.3871216667775235 14.359735525202023 0.4859699953704162
H -5.924298137652958 13.715077991724112 -0.7897232891882151
O -10.342097906642959 5.662198517075723e-05 -4.732632525195484
H -10.432688435337521 -0.1829505346353093 -5.6798754157132905
H -9.694255042483842 -0.6534048117938176 -4.42890613150929
O 8.791073190428527 -9.910261071356262 -0.22082202550522737
H 9.038045635228787 -10.625331514850076 -0.8263352204489411
H 7.837155975133611 -10.02730714629584 -0.09711225626596562
O 7.318165565984332 -8.841977189714916 1.499542004724261
H 8.027877394598487 -9.379078922462568 1.8826845446550566
H 7.763196242794454 -8.025004959308031 1.2284958541485218
O 7.793096101592923 9.417423188052227 -1.337630692332246
H 7.596384442351699 10.234158726438283 -0.8547073647161448
H 7.02820776547584 9.300386346709807 -1.9209060606966497
O 11.812145210872178 8.222608351815818 -5.384799145473011
H 12.458137507091323 8.061938358654153 -6.088962807857647
H 11.116261174124633 7.5693604113435695 -5.552054877717705
O 7.516528068669614 -7.096926663216889 -1.9507123887591247
H 7.7747403492411165 -7.888466012171232 -1.4549712929046468
H 7.780072476190524 -6.363651232372349 -1.3746798965469198
O 1.48854867517699 15.13919047932544 1.3043840587567779
H 1.1966177799247628 14.73545807776027 0.47327404364226044
H 2.386743253478186 15.447682506053226 1.1119233789914862
O 3.001942893323575 -1.9265512777882043 10.315968577491763
H 3.2346065067105303 -1.5426642807604105 11.174726851640377
H 2.2504995339336378 -2.5053464999489856 10.514187932582571
O -3.6705288628534687 4.062582922702218 10.331600918953097
H -4.140517936232694 4.839357383617542 10.670273422522321
H -4.112109363567189 3.869993446052383 9.490840608773578
O 2.0726398738668927 -0.786159067005495 -7.677089206643831
H 2.5687316050277404 -1.2225410726235588 -8.3859129480257
H 2.3942318572933434 0.12775064486168253 -7.694684065287582
O -7.866099925258139 8.554817843019368 -9.306938723039842
H -7.731353036524911 8.533718150316302 -10.266295505391723
H -7.240775670218866 9.227254251906382 -8.99748630931082
O 8.753359551332716 2.498393808826298 -3.5959295098264685
H 9.21126820870453 2.2986816127041276 -4.4262318987932865
H 8.397160483685157 1.6426747230735446 -3.3133892210436473
O -3.339658382580164 -11.132150678829914 -9.32924266012634
H -3.0099766318638084 -11.977966058827139 -8.990312515251693
H -2.804328684810619 -10.46999854662797 -8.866707674631852
C -7.941926373684881 -1.0362162479652386 -0.3072691027413943
O -8.64625173422576 -1.9578871119360897 -0.01185945106057007
O -7.237601013144001 -0.11454538399438874 -0.6026787544222185