146

C -5.3564454929577465 1.0091607042253532 -0.0734429577464788
C -4.079135492957747 0.16955070422535368 -0.19788295774647868
C -4.333545492957747 -1.2789292957746463 0.3017270422535212
C -3.1403854929577464 -2.1745492957746464 0.7330270422535212
C -2.905235492957746 0.902300704225353 0.41966704225352136
C -2.7423854929577463 1.056130704225354 1.8024770422535212
C -1.8861754929577463 1.3499307042253532 -0.4326129577464788
C -1.5304554929577463 1.5279207042253526 2.3254170422535214
H -3.5237954929577464 0.7301007042253529 2.484817042253521
C -0.6776454929577462 1.8010507042253527 0.08546704225352131
H -1.9759254929577463 1.2426607042253535 -1.5115229577464788
C -0.4680254929577463 1.8513207042253539 1.4698070422535212
H -1.3950654929577464 1.5446707042253527 3.404047042253521
H 0.1461845070422536 1.9972507042253538 -0.6030529577464789
C -1.8679654929577463 -2.0866092957746467 -0.08765295774647863
C -0.6628654929577462 -1.814079295774647 0.5787970422535212
C -1.8438954929577462 -2.213429295774647 -1.4808029577464787
C 0.5129345070422537 -1.5763292957746469 -0.13022295774647863
H -0.6401854929577462 -1.7032692957746463 1.6609470422535213
C -0.6547954929577462 -1.9962392957746466 -2.1933129577464787
H -2.7578654929577464 -2.4351492957746466 -2.026182957746479
C 0.5308845070422537 -1.645769295774647 -1.5261029577464789
H 1.4044045070422537 -1.2610992957746463 0.41551704225352126
H -0.6795654929577464 -2.0467992957746466 -3.2793129577464786
C 1.7843245070422535 -1.2521692957746469 -2.2771629577464787
H 1.4981245070422535 -0.9384492957746469 -3.290282957746479
H 2.241984507042254 -0.38631929577464685 -1.8135029577464787
C 0.9385645070422537 2.0647807042253534 1.9815670422535212
H 1.0508945070422537 1.5807407042253532 2.9609770422535213
H 1.6053245070422537 1.5496207042253536 1.3096170422535214
C 3.9676945070422533 -1.6881692957746468 -3.314052957746479
H 4.795084507042254 -2.398849295774647 -3.4044129577464783
H 3.548404507042253 -1.4816192957746468 -4.303802957746479
H 4.307714507042253 -0.7637192957746466 -2.851282957746479
C 2.344694507042253 -3.565079295774647 -3.101282957746479
H 1.6334345070422536 -4.047909295774646 -2.4251929577464786
H 1.8561845070422536 -3.293109295774647 -4.041792957746479
H 3.1808045070422537 -4.243519295774647 -3.298122957746479
C 3.5156645070422536 -2.648489295774647 -1.1110629577464786
H 3.9311845070422535 -1.748249295774647 -0.6771029577464787
H 2.767184507042254 -3.1044092957746465 -0.45972295774647876
H 4.319224507042254 -3.371819295774647 -1.2863129577464787
C 2.963994507042253 3.381090704225353 2.401027042253521
H 3.3337945070422537 4.369820704225353 2.6912870422535216
H 3.120994507042253 2.671350704225353 3.2183370422535216
H 3.4665445070422534 3.0664207042253535 1.4881370422535212
C 1.2973745070422538 4.282440704225354 0.8488370422535213
H 1.7592145070422538 3.7367207042253527 0.02653704225352116
H 0.23311450704225378 4.4484607042253534 0.6605570422535213
H 1.7921845070422535 5.251370704225354 0.9736770422535213
C 0.7724845070422537 4.194670704225353 3.2772470422535216
H -0.2956954929577462 4.278220704225354 3.057857042253521
H 0.9298945070422537 3.612620704225354 4.190337042253521
H 1.2046345070422537 5.193640704225353 3.3918370422535213
N 2.876084507042253 -2.324759295774647 -2.4576629577464786
N 1.4527845070422536 3.504690704225353 2.1388470422535213
C -3.593905492957746 -3.637819295774647 0.8297870422535213
H -2.8952554929577463 -1.8680692957746468 1.7595270422535212
H -5.022615492957747 -1.2402792957746467 1.1579970422535213
H -4.898275492957747 -1.7933092957746464 -0.48931295774647876
H -3.883675492957746 0.07871070422535364 -1.2758929577464788
H -3.8751654929577466 -4.038529295774646 -0.1505529577464788
H -4.4603554929577465 -3.7321892957746465 1.4932570422535212
H -2.7953554929577464 -4.271929295774647 1.2313670422535212
H -5.648775492957746 1.147700704225353 0.9733970422535213
H -6.189795492957747 0.5254307042253537 -0.5943629577464788
H -5.2178854929577465 2.002970704225354 -0.5139729577464787
C 3.6710445070422537 1.0263707042253536 -0.27764295774647874
O 2.7356545070422538 1.6631507042253526 -0.7327029577464788
O 3.650814507042253 0.3883007042253537 0.7790570422535212
O 4.756604507042254 0.8696707042253538 -0.8334829577464786
O -0.41876450277744937 2.097548983756379 -7.485212405387881
H -0.7853313668030122 1.3785423858648396 -8.021519783005324
H -1.096504483720091 2.255566623801876 -6.810926940642927
O 5.376237415484105 6.824426692787769 -14.782266754710818
H 5.247593065505701 6.616562649409652 -15.719929022048657
H 6.295043324138425 6.569380634436854 -14.609903317051993
O -6.129119491257964 7.34419028289993 -7.247327720764569
H -6.34659537585361 7.4937004340092805 -6.314955310600797
H -6.097910451040479 6.379103990487645 -7.328545873332913
O 3.190447783015545 -5.904195851724136 -6.685171674066973
H 2.4095073354515084 -6.058746400216606 -6.132710361195964
H 3.579932809715078 -5.09597977608069 -6.319043099180541
O 9.687895754928276 -5.220047081416649 -5.287599067717229
H 10.366479207738914 -5.681203952296427 -4.772015713726855
H 9.158457098616292 -4.759883632021266 -4.619088594094636
O -10.728277344735911 1.7703743506011724 -11.98797417680354
H -10.812315897991365 1.443322216786032 -12.896237233540791
H -10.483277557300147 0.9838738072273232 -11.477725273101562
O 0.578812444584123 -6.664109380959037 3.7975951344903294
H 1.125711310715043 -6.686487497993122 4.597200166367145
H 0.7001129913837878 -5.765413084638875 3.4561378331677113
O -13.04326826781424 2.4263141997680213 0.11986244905264654
H -13.441953650993506 2.5749457651980476 0.9904518929910757
H -12.638667459925532 3.2786810742877153 -0.10088818351119277
O -6.896145594400677 2.6173291538906964 -9.361754049895017
H -6.7018069016910875 3.113378383561126 -10.17115814622719
H -6.853675132667861 3.2858851615387854 -8.661617585469795
O -5.669659047728641 -3.368491967944891 6.155546263461518
H -5.757635665270868 -3.3259687626577072 5.191482339918097
H -6.576989256190491 -3.5038265560467288 6.467633408944765
O 3.1309203651274755 2.3182363657322864 8.666833558868882
H 2.3707722904576087 1.7754620060488242 8.92478366246627
H 3.437912130260594 1.9139056432461499 7.841464146245484
O -5.561282413529497 3.3094293825397423 -11.30727699436277
H -5.682587870700681 3.2453524331645136 -12.266519657883972
H -4.853328683349565 2.675439442052093 -11.11801470127514
O -3.4748135797042066 3.600887613041107 -8.985244005793266
H -3.626714902792679 3.1087161721994043 -9.806012315222777
H -3.851389570313349 4.475686687822218 -9.163791048218657
O 4.2460642492771825 6.161845391781007 0.9621410533924983
H 4.0431785065465204 6.904264017975206 0.3733972077545604
H 4.73935460024434 6.568581392380683 1.6902841710272662
O -3.8336991823424973 6.5825018895867675 -6.751413288475147
H -3.9445525855335095 6.691854214898477 -5.7950028384852414
H -3.3469995284734115 5.748962453231292 -6.836838104915728
O -12.385664175548515 -2.7246942855327245 -0.4179650058511668
H -13.263687953735838 -2.757515015294599 -0.00935222884149145
H -12.54227141931566 -2.301643199045131 -1.275556921462155
O 1.6287415436835708 -12.922062077500279 1.1769316501568432
H 1.0187875704240597 -12.88289593162552 1.9288555295636987
H 1.9998269319132604 -12.028175845701096 1.1297619189483923
O 8.349244635187622 -8.317917919857088 -7.239914916806479
H 8.370060553268534 -8.364658805572683 -8.207566374748321
H 7.544328701321969 -8.800908771559014 -6.9995149981679115
O 7.965852412628428 -9.059999208659397 3.4517763642685306
H 8.512780113218959 -9.460256949442002 2.75922225939992
H 7.075167542858945 -9.39540157027107 3.2697113679374725
O -7.606072654198405 6.322753860567897 4.441209307303875
H -7.767223930609475 7.156270202213195 4.9083796522759435
H -7.369744948827112 6.599662614210487 3.543193326304628
O 3.972194144844858 6.887473689830618 -6.601409701674916
H 3.9697357802632824 6.931269603506775 -7.569419635140919
H 3.113273565356316 7.257732164729579 -6.348178494679095
O -4.206315511408632 -7.334214521259369 -9.354880504548527
H -3.7642610022929768 -7.5696788813882625 -8.52535551819814
H -5.131345236367391 -7.202687174748316 -9.09800989633793
O -5.048787203512869 -0.9677185675070352 9.41749189711318
H -5.495538523007618 -0.6162953124325419 8.632710200574232
H -5.629620378709161 -0.7143927715686402 10.150581801561177
O -6.577337707225661 -3.0233635191558736 0.5603299184337001
H -6.064610408822123 -3.605046489154804 1.1414693137469354
H -5.9825752286059695 -2.8546656084367554 -0.1858339732450418
C 6.416641477389092 9.115380724341431 -5.684512184581234
O 6.255498048359581 9.152711284231813 -4.498992264091122
O 6.577784906418604 9.07805016445105 -6.870032105071345