146

C -5.3564454929577465 1.0091607042253532 -0.0734429577464788
C -4.079135492957747 0.16955070422535368 -0.19788295774647868
C -4.333545492957747 -1.2789292957746463 0.3017270422535212
C -3.1403854929577464 -2.1745492957746464 0.7330270422535212
C -2.905235492957746 0.902300704225353 0.41966704225352136
C -2.7423854929577463 1.056130704225354 1.8024770422535212
C -1.8861754929577463 1.3499307042253532 -0.4326129577464788
C -1.5304554929577463 1.5279207042253526 2.3254170422535214
H -3.5237954929577464 0.7301007042253529 2.484817042253521
C -0.6776454929577462 1.8010507042253527 0.08546704225352131
H -1.9759254929577463 1.2426607042253535 -1.5115229577464788
C -0.4680254929577463 1.8513207042253539 1.4698070422535212
H -1.3950654929577464 1.5446707042253527 3.404047042253521
H 0.1461845070422536 1.9972507042253538 -0.6030529577464789
C -1.8679654929577463 -2.0866092957746467 -0.08765295774647863
C -0.6628654929577462 -1.814079295774647 0.5787970422535212
C -1.8438954929577462 -2.213429295774647 -1.4808029577464787
C 0.5129345070422537 -1.5763292957746469 -0.13022295774647863
H -0.6401854929577462 -1.7032692957746463 1.6609470422535213
C -0.6547954929577462 -1.9962392957746466 -2.1933129577464787
H -2.7578654929577464 -2.4351492957746466 -2.026182957746479
C 0.5308845070422537 -1.645769295774647 -1.5261029577464789
H 1.4044045070422537 -1.2610992957746463 0.41551704225352126
H -0.6795654929577464 -2.0467992957746466 -3.2793129577464786
C 1.7843245070422535 -1.2521692957746469 -2.2771629577464787
H 1.4981245070422535 -0.9384492957746469 -3.290282957746479
H 2.241984507042254 -0.38631929577464685 -1.8135029577464787
C 0.9385645070422537 2.0647807042253534 1.9815670422535212
H 1.0508945070422537 1.5807407042253532 2.9609770422535213
H 1.6053245070422537 1.5496207042253536 1.3096170422535214
C 3.9676945070422533 -1.6881692957746468 -3.314052957746479
H 4.795084507042254 -2.398849295774647 -3.4044129577464783
H 3.548404507042253 -1.4816192957746468 -4.303802957746479
H 4.307714507042253 -0.7637192957746466 -2.851282957746479
C 2.344694507042253 -3.565079295774647 -3.101282957746479
H 1.6334345070422536 -4.047909295774646 -2.4251929577464786
H 1.8561845070422536 -3.293109295774647 -4.041792957746479
H 3.1808045070422537 -4.243519295774647 -3.298122957746479
C 3.5156645070422536 -2.648489295774647 -1.1110629577464786
H 3.9311845070422535 -1.748249295774647 -0.6771029577464787
H 2.767184507042254 -3.1044092957746465 -0.45972295774647876
H 4.319224507042254 -3.371819295774647 -1.2863129577464787
C 2.963994507042253 3.381090704225353 2.401027042253521
H 3.3337945070422537 4.369820704225353 2.6912870422535216
H 3.120994507042253 2.671350704225353 3.2183370422535216
H 3.4665445070422534 3.0664207042253535 1.4881370422535212
C 1.2973745070422538 4.282440704225354 0.8488370422535213
H 1.7592145070422538 3.7367207042253527 0.02653704225352116
H 0.23311450704225378 4.4484607042253534 0.6605570422535213
H 1.7921845070422535 5.251370704225354 0.9736770422535213
C 0.7724845070422537 4.194670704225353 3.2772470422535216
H -0.2956954929577462 4.278220704225354 3.057857042253521
H 0.9298945070422537 3.612620704225354 4.190337042253521
H 1.2046345070422537 5.193640704225353 3.3918370422535213
N 2.876084507042253 -2.324759295774647 -2.4576629577464786
N 1.4527845070422536 3.504690704225353 2.1388470422535213
C -3.593905492957746 -3.637819295774647 0.8297870422535213
H -2.8952554929577463 -1.8680692957746468 1.7595270422535212
H -5.022615492957747 -1.2402792957746467 1.1579970422535213
H -4.898275492957747 -1.7933092957746464 -0.48931295774647876
H -3.883675492957746 0.07871070422535364 -1.2758929577464788
H -3.8751654929577466 -4.038529295774646 -0.1505529577464788
H -4.4603554929577465 -3.7321892957746465 1.4932570422535212
H -2.7953554929577464 -4.271929295774647 1.2313670422535212
H -5.648775492957746 1.147700704225353 0.9733970422535213
H -6.189795492957747 0.5254307042253537 -0.5943629577464788
H -5.2178854929577465 2.002970704225354 -0.5139729577464787
C 3.6710445070422537 1.0263707042253536 -0.27764295774647874
O 2.7356545070422538 1.6631507042253526 -0.7327029577464788
O 3.650814507042253 0.3883007042253537 0.7790570422535212
O 4.756604507042254 0.8696707042253538 -0.8334829577464786
O -4.336603734407618 1.7937855061248387 8.405771143932594
H -3.9392254100575728 2.253162980993499 9.160774561024231
H -3.5882146985303454 1.3449282885839102 7.984578796494869
O -13.573845833564354 -1.552228419999536 -7.5973589423866965
H -14.333093613080635 -1.0470468820241692 -7.924928446291501
H -13.858726165681986 -2.4756479176572155 -7.668784232152914
O 3.732598208165386 4.459979347202381 -1.693934572679805
H 3.4802011681064537 4.760101037415894 -0.8078250635710966
H 2.950833549406618 4.645776719640583 -2.2354927865505276
O -4.749354935733297 0.810147637639943 4.73224306034885
H -4.938178594071023 0.4020903863333696 5.590614927669816
H -3.7924411418046384 0.9616192439450661 4.750526598638945
O -4.516496104734674 8.145823269826925 -2.3825576386567002
H -5.110777388592805 8.738734042019876 -2.8665554989551665
H -5.070525771704551 7.787141984240712 -1.6730783875242456
O -3.4296902682991144 -1.3926786070359327 -4.806201743623959
H -2.812522101529556 -1.885259937393834 -4.2445662356571425
H -3.6978301470965977 -0.6412233870776562 -4.256312661993919
O 12.628151286979442 -3.8380246699562868 2.2048109117584644
H 12.08047545098092 -3.9645984276407495 1.4155089293531518
H 12.465564606218699 -2.9167143836291243 2.4572289615230702
O -1.1841474603184508 5.4682523389418645 0.17677454290314665
H -1.4044274440086852 5.486863807788735 -0.7666753492017776
H -1.3974831680982978 6.361944536188156 0.484612286961873
O -11.264268897365344 3.192071815224018 -1.774243855860941
H -11.844411591223217 3.8461853618514117 -2.192020446614735
H -10.488822766527726 3.162449430246424 -2.3545608009669805
O 6.168409027352073 8.222654673137319 -4.461528941218205
H 5.606156945881045 8.394319548473604 -3.69122307705951
H 6.900097428370607 8.850054924595701 -4.361714350176117
O -9.034364629136833 4.107491843370884 -1.761994093387557
H -8.133249661580981 4.435937833888662 -1.9001331662801004
H -9.55524481595547 4.559839122995386 -2.4424554911876784
O 0.9799583882800977 3.201783168238633 -13.436897246656079
H 0.5682838474688867 3.025274648350546 -14.296162148624497
H 0.44965379599867283 3.9236061529776345 -13.067153332023654
O 12.154462506625602 0.4876413407395326 1.7938118392613482
H 12.737521190526014 0.4828437143677675 1.019869392557773
H 11.954983590256825 -0.4488925294857644 1.9423864540014337
O 10.546259076330548 -3.4724116552264377 -3.5014723392703444
H 10.68141750381627 -3.017031347503532 -4.346060008916178
H 10.8280410639991 -2.8243781173868276 -2.8384388638253717
O 5.554324666523602 5.234333330776163 5.072887014174131
H 5.348019003365777 5.8874405897519395 4.387426410986639
H 4.707800635782821 5.091232738371042 5.522198966086923
O -1.673807594761917 -13.765762406687735 1.0820570918032826
H -1.3900879556574584 -14.03389084880073 1.9689492283207364
H -1.4442618854033311 -12.825412808651972 1.0371867776853276
O -0.48066620179731884 8.749018791450268 -6.2836762524477985
H -0.05432327947589494 8.952175988213527 -7.129800488532383
H -1.4256644779042387 8.727579469756037 -6.4969379647644745
O 3.161790516470007 -10.801585910286516 0.22716032996437374
H 2.848524769913634 -11.156297892165494 -0.6184231010736092
H 2.3476447693596145 -10.599460712975068 0.7122108957550656
O -10.862515397618592 1.5315894811734825 -8.424607136237496
H -10.8241824486035 1.4419205054841147 -9.388690854966645
H -10.463545859331504 2.3980218202038928 -8.254077802393489
O -3.899123283559012 6.315840439843033 11.259241530766216
H -4.862896025715742 6.376665147763411 11.179180221245957
H -3.5993836302329285 6.14465337154919 10.353806236461363
O 5.598259646828421 -6.756232630182213 -1.9296596213434676
H 5.65650290456428 -6.6824010990677385 -2.894088978446209
H 4.663545058662919 -6.952374591048966 -1.765955882357636
O 2.56733529228414 5.071897362782515 7.490246025709341
H 3.007380048113804 4.43755657438978 8.07585659080196
H 2.67528978457688 5.9219782119355 7.942651067455293
O 2.7361646887349043 -4.151059117809583 -7.92586956034406
H 3.4335762245417634 -4.533379534976245 -8.47941775629544
H 1.9433133065791488 -4.652393816640387 -8.168793725181429
O 1.7354552503504204 -2.2578025703800693 -7.23339248020559
H 2.4279582777292856 -1.7731491412760378 -7.707225750068326
H 1.3716624393463768 -1.6039756946727608 -6.6176594604928285
C -5.863414243915423 5.287848370331318 7.613480014260451
O -4.831883542975813 5.118627088161499 7.030276080820491
O -6.894944944855031 5.457069652501136 8.19668394770041