146

C -5.3564454929577465 1.0091607042253532 -0.0734429577464788
C -4.079135492957747 0.16955070422535368 -0.19788295774647868
C -4.333545492957747 -1.2789292957746463 0.3017270422535212
C -3.1403854929577464 -2.1745492957746464 0.7330270422535212
C -2.905235492957746 0.902300704225353 0.41966704225352136
C -2.7423854929577463 1.056130704225354 1.8024770422535212
C -1.8861754929577463 1.3499307042253532 -0.4326129577464788
C -1.5304554929577463 1.5279207042253526 2.3254170422535214
H -3.5237954929577464 0.7301007042253529 2.484817042253521
C -0.6776454929577462 1.8010507042253527 0.08546704225352131
H -1.9759254929577463 1.2426607042253535 -1.5115229577464788
C -0.4680254929577463 1.8513207042253539 1.4698070422535212
H -1.3950654929577464 1.5446707042253527 3.404047042253521
H 0.1461845070422536 1.9972507042253538 -0.6030529577464789
C -1.8679654929577463 -2.0866092957746467 -0.08765295774647863
C -0.6628654929577462 -1.814079295774647 0.5787970422535212
C -1.8438954929577462 -2.213429295774647 -1.4808029577464787
C 0.5129345070422537 -1.5763292957746469 -0.13022295774647863
H -0.6401854929577462 -1.7032692957746463 1.6609470422535213
C -0.6547954929577462 -1.9962392957746466 -2.1933129577464787
H -2.7578654929577464 -2.4351492957746466 -2.026182957746479
C 0.5308845070422537 -1.645769295774647 -1.5261029577464789
H 1.4044045070422537 -1.2610992957746463 0.41551704225352126
H -0.6795654929577464 -2.0467992957746466 -3.2793129577464786
C 1.7843245070422535 -1.2521692957746469 -2.2771629577464787
H 1.4981245070422535 -0.9384492957746469 -3.290282957746479
H 2.241984507042254 -0.38631929577464685 -1.8135029577464787
C 0.9385645070422537 2.0647807042253534 1.9815670422535212
H 1.0508945070422537 1.5807407042253532 2.9609770422535213
H 1.6053245070422537 1.5496207042253536 1.3096170422535214
C 3.9676945070422533 -1.6881692957746468 -3.314052957746479
H 4.795084507042254 -2.398849295774647 -3.4044129577464783
H 3.548404507042253 -1.4816192957746468 -4.303802957746479
H 4.307714507042253 -0.7637192957746466 -2.851282957746479
C 2.344694507042253 -3.565079295774647 -3.101282957746479
H 1.6334345070422536 -4.047909295774646 -2.4251929577464786
H 1.8561845070422536 -3.293109295774647 -4.041792957746479
H 3.1808045070422537 -4.243519295774647 -3.298122957746479
C 3.5156645070422536 -2.648489295774647 -1.1110629577464786
H 3.9311845070422535 -1.748249295774647 -0.6771029577464787
H 2.767184507042254 -3.1044092957746465 -0.45972295774647876
H 4.319224507042254 -3.371819295774647 -1.2863129577464787
C 2.963994507042253 3.381090704225353 2.401027042253521
H 3.3337945070422537 4.369820704225353 2.6912870422535216
H 3.120994507042253 2.671350704225353 3.2183370422535216
H 3.4665445070422534 3.0664207042253535 1.4881370422535212
C 1.2973745070422538 4.282440704225354 0.8488370422535213
H 1.7592145070422538 3.7367207042253527 0.02653704225352116
H 0.23311450704225378 4.4484607042253534 0.6605570422535213
H 1.7921845070422535 5.251370704225354 0.9736770422535213
C 0.7724845070422537 4.194670704225353 3.2772470422535216
H -0.2956954929577462 4.278220704225354 3.057857042253521
H 0.9298945070422537 3.612620704225354 4.190337042253521
H 1.2046345070422537 5.193640704225353 3.3918370422535213
N 2.876084507042253 -2.324759295774647 -2.4576629577464786
N 1.4527845070422536 3.504690704225353 2.1388470422535213
C -3.593905492957746 -3.637819295774647 0.8297870422535213
H -2.8952554929577463 -1.8680692957746468 1.7595270422535212
H -5.022615492957747 -1.2402792957746467 1.1579970422535213
H -4.898275492957747 -1.7933092957746464 -0.48931295774647876
H -3.883675492957746 0.07871070422535364 -1.2758929577464788
H -3.8751654929577466 -4.038529295774646 -0.1505529577464788
H -4.4603554929577465 -3.7321892957746465 1.4932570422535212
H -2.7953554929577464 -4.271929295774647 1.2313670422535212
H -5.648775492957746 1.147700704225353 0.9733970422535213
H -6.189795492957747 0.5254307042253537 -0.5943629577464788
H -5.2178854929577465 2.002970704225354 -0.5139729577464787
C 3.6710445070422537 1.0263707042253536 -0.27764295774647874
O 2.7356545070422538 1.6631507042253526 -0.7327029577464788
O 3.650814507042253 0.3883007042253537 0.7790570422535212
O 4.756604507042254 0.8696707042253538 -0.8334829577464786
O 1.1028235823911556 8.290443997579345 -9.294153671731276
H 0.2914361240203167 8.178988343013563 -8.7762778310476
H 0.840137754652182 8.050147778397578 -10.19538384613293
O -1.7921944153940537 9.843205305543979 7.974506095771729
H -2.284107190249625 10.435410498411054 8.56296356099344
H -2.1224852301580537 8.960832918369608 8.200976606732285
O -6.441419220271994 4.6662953911324845 5.635168471279418
H -6.45224805874133 4.7929421668678325 6.595798830654577
H -6.97031170496325 5.403930082048803 5.295860724987212
O -11.486306336886528 -2.4128067202884584 4.188099708125433
H -11.588582949130839 -1.6861271177914396 4.820905844949819
H -11.416425512577527 -3.2015112803194348 4.746690552733753
O 1.254742212539404 -8.76823403407852 -3.4635767114403238
H 0.3491862479956314 -8.572258508134375 -3.179799782832456
H 1.2073235259940605 -8.743646059040257 -4.431103891394371
O -7.4875718594219345 9.469012638694949 1.2590629526850146
H -7.185308590649131 8.946313099812626 2.0169478155124674
H -6.7086316599835385 9.521054886446048 0.6850370696031751
O -6.442887067748587 2.825070094302812 -1.7868698592743066
H -6.542398355539528 3.1934945739752636 -0.8961800910158672
H -6.420634376582379 3.604914386693707 -2.361595569210103
O -3.426748669376192 3.9614688035914716 -2.7002283055824474
H -2.9823523317777423 4.818375575395574 -2.785022388308529
H -4.367894329950865 4.18876359431261 -2.660936219960823
O 1.3082640023267325 -4.1050339812109655 5.187121173553438
H 1.865718413649822 -4.767904024430246 4.752592415012765
H 0.9921403960402406 -4.55261829502783 5.986305815468877
O 7.959228416588651 1.9527247967842252 0.7800969139050924
H 7.321808666093301 1.9528947994706254 0.05025899376286436
H 8.815957006315717 1.8362701697807768 0.3425853281227731
O 6.204216622992343 -1.4226931838958303 0.19396342374023878
H 6.417113611978795 -0.9919018210069548 1.0354270478148921
H 6.2396121559074675 -0.7024197904204326 -0.45327327114123017
O -0.48870715200491066 -5.640049586824654 12.52392628933441
H 0.15154763648822556 -6.324384736682341 12.770353896109436
H 0.00020161840306087697 -4.810940008531636 12.63576307085525
O -5.573472309971772 -1.2508178197581716 13.143098070338194
H -6.2051226819330125 -1.7539428669961983 13.678682191968923
H -5.5213471270305226 -1.7486817032015058 12.313413513915657
O -7.989490306185399 -6.0388823763989254 3.203836613686017
H -7.3582438058082715 -6.773855453705735 3.2214374175253253
H -8.843814223979848 -6.459768639140709 3.3825748066375927
O 5.9075249994711765 11.409519330421613 -6.922167433178652
H 5.766256160508964 12.199235726795376 -7.4656363700432244
H 6.843150126973452 11.459727262875798 -6.6750910712881915
O -6.07062646157326 -6.892294334636844 5.008702688263909
H -6.83244248277504 -6.569657866074252 4.504213425847205
H -5.6439953138350205 -7.523748420539615 4.410193251850208
O -2.034561524508839 -2.5265847454082335 3.7401762244723225
H -2.0947905565033675 -2.4993152663326987 4.70692138019639
H -1.425754043468387 -1.8046366228807516 3.523136357838971
O 1.5638726801965235 -6.307454741252341 1.4133821330013379
H 1.2074312528954718 -5.97668491236957 0.575224518883055
H 2.433406814050294 -6.661998521791501 1.1742774654513861
O -4.548833156919171 8.255061361965927 -0.5678679002056853
H -3.7988249972771397 8.648089594872324 -0.09671619904262302
H -4.150319741830894 7.54142248226878 -1.0883182356645853
O -0.6723753593389035 -8.445902393531753 9.690251202856594
H 0.2488080181175163 -8.493306113799466 9.9871374256807
H -0.9650447311689554 -7.567053998397471 9.974736846540939
O 1.3568531576678264 7.0538872019086165 -3.930214317770673
H 1.3588305973614014 6.967526000462714 -4.895359482767669
H 1.3131661790856461 8.010316014048964 -3.78089144775351
O -5.389512056687876 -11.878079493577978 -8.904673074310423
H -5.752739685703613 -12.764444883643549 -8.758421777859715
H -4.694084877574247 -11.796654206039248 -8.234812711697964
O 6.102818245729736 3.6186545408491173 -2.4912907469272647
H 6.155704375114191 3.445120216470116 -3.443160618538429
H 6.099986190586365 4.585677085073293 -2.429473898691003
O -8.299470990625565 -6.721173902555146 -7.650935042698807
H -8.50343368874877 -7.394648311123255 -8.31711729679909
H -7.43401008715248 -6.987645737323499 -7.306069662971094
C 2.1329742841728603 6.481038635815324 -8.456596409260642
O 1.132441557347983 6.86897422445943 -8.98693450794461
O 3.133507010997737 6.0931030471712155 -7.9262583105766735