146

C -5.3564454929577465 1.0091607042253532 -0.0734429577464788
C -4.079135492957747 0.16955070422535368 -0.19788295774647868
C -4.333545492957747 -1.2789292957746463 0.3017270422535212
C -3.1403854929577464 -2.1745492957746464 0.7330270422535212
C -2.905235492957746 0.902300704225353 0.41966704225352136
C -2.7423854929577463 1.056130704225354 1.8024770422535212
C -1.8861754929577463 1.3499307042253532 -0.4326129577464788
C -1.5304554929577463 1.5279207042253526 2.3254170422535214
H -3.5237954929577464 0.7301007042253529 2.484817042253521
C -0.6776454929577462 1.8010507042253527 0.08546704225352131
H -1.9759254929577463 1.2426607042253535 -1.5115229577464788
C -0.4680254929577463 1.8513207042253539 1.4698070422535212
H -1.3950654929577464 1.5446707042253527 3.404047042253521
H 0.1461845070422536 1.9972507042253538 -0.6030529577464789
C -1.8679654929577463 -2.0866092957746467 -0.08765295774647863
C -0.6628654929577462 -1.814079295774647 0.5787970422535212
C -1.8438954929577462 -2.213429295774647 -1.4808029577464787
C 0.5129345070422537 -1.5763292957746469 -0.13022295774647863
H -0.6401854929577462 -1.7032692957746463 1.6609470422535213
C -0.6547954929577462 -1.9962392957746466 -2.1933129577464787
H -2.7578654929577464 -2.4351492957746466 -2.026182957746479
C 0.5308845070422537 -1.645769295774647 -1.5261029577464789
H 1.4044045070422537 -1.2610992957746463 0.41551704225352126
H -0.6795654929577464 -2.0467992957746466 -3.2793129577464786
C 1.7843245070422535 -1.2521692957746469 -2.2771629577464787
H 1.4981245070422535 -0.9384492957746469 -3.290282957746479
H 2.241984507042254 -0.38631929577464685 -1.8135029577464787
C 0.9385645070422537 2.0647807042253534 1.9815670422535212
H 1.0508945070422537 1.5807407042253532 2.9609770422535213
H 1.6053245070422537 1.5496207042253536 1.3096170422535214
C 3.9676945070422533 -1.6881692957746468 -3.314052957746479
H 4.795084507042254 -2.398849295774647 -3.4044129577464783
H 3.548404507042253 -1.4816192957746468 -4.303802957746479
H 4.307714507042253 -0.7637192957746466 -2.851282957746479
C 2.344694507042253 -3.565079295774647 -3.101282957746479
H 1.6334345070422536 -4.047909295774646 -2.4251929577464786
H 1.8561845070422536 -3.293109295774647 -4.041792957746479
H 3.1808045070422537 -4.243519295774647 -3.298122957746479
C 3.5156645070422536 -2.648489295774647 -1.1110629577464786
H 3.9311845070422535 -1.748249295774647 -0.6771029577464787
H 2.767184507042254 -3.1044092957746465 -0.45972295774647876
H 4.319224507042254 -3.371819295774647 -1.2863129577464787
C 2.963994507042253 3.381090704225353 2.401027042253521
H 3.3337945070422537 4.369820704225353 2.6912870422535216
H 3.120994507042253 2.671350704225353 3.2183370422535216
H 3.4665445070422534 3.0664207042253535 1.4881370422535212
C 1.2973745070422538 4.282440704225354 0.8488370422535213
H 1.7592145070422538 3.7367207042253527 0.02653704225352116
H 0.23311450704225378 4.4484607042253534 0.6605570422535213
H 1.7921845070422535 5.251370704225354 0.9736770422535213
C 0.7724845070422537 4.194670704225353 3.2772470422535216
H -0.2956954929577462 4.278220704225354 3.057857042253521
H 0.9298945070422537 3.612620704225354 4.190337042253521
H 1.2046345070422537 5.193640704225353 3.3918370422535213
N 2.876084507042253 -2.324759295774647 -2.4576629577464786
N 1.4527845070422536 3.504690704225353 2.1388470422535213
C -3.593905492957746 -3.637819295774647 0.8297870422535213
H -2.8952554929577463 -1.8680692957746468 1.7595270422535212
H -5.022615492957747 -1.2402792957746467 1.1579970422535213
H -4.898275492957747 -1.7933092957746464 -0.48931295774647876
H -3.883675492957746 0.07871070422535364 -1.2758929577464788
H -3.8751654929577466 -4.038529295774646 -0.1505529577464788
H -4.4603554929577465 -3.7321892957746465 1.4932570422535212
H -2.7953554929577464 -4.271929295774647 1.2313670422535212
H -5.648775492957746 1.147700704225353 0.9733970422535213
H -6.189795492957747 0.5254307042253537 -0.5943629577464788
H -5.2178854929577465 2.002970704225354 -0.5139729577464787
C 3.6710445070422537 1.0263707042253536 -0.27764295774647874
O 2.7356545070422538 1.6631507042253526 -0.7327029577464788
O 3.650814507042253 0.3883007042253537 0.7790570422535212
O 4.756604507042254 0.8696707042253538 -0.8334829577464786
O -0.7145258882547579 6.72022526977425 -8.310301889034513
H -1.2300169104642071 7.402421689020335 -8.766201448684747
H -0.8282418404220749 5.93247576844599 -8.863005561611201
O 4.779402959545651 6.192498374614277 -0.7314273945110821
H 5.125127187580004 5.639554402020799 -0.014702148532824033
H 3.81922348973451 6.074544254093273 -0.6757124458409902
O 5.80625467293185 -2.3534788048332214 -8.695980744211049
H 6.001071413034227 -2.3920634662115474 -9.644413672035787
H 4.846256550070325 -2.47660929602885 -8.649029380649708
O 0.6251107443959856 11.212165549891244 -3.3445319847114163
H 0.9885538550552857 11.714587021531145 -4.089145392493932
H 1.2201541964985099 10.45179380385502 -3.2625561209481675
O 3.814241976540858 7.053133231367674 -7.777004961035466
H 3.7846484626781622 7.975097912577963 -8.07377542357861
H 4.615077584424126 7.007839281028711 -7.233338950042571
O -0.6949241131842663 0.9022625718141216 -8.299386295581535
H -0.9598648282447358 1.7224407887193478 -8.742197165951053
H -1.4088761785733248 0.7374500808292165 -7.665295422407942
O -5.432532572107938 -5.179544428925101 -7.192016024257121
H -4.4822061876530945 -5.2316226039048725 -7.009985852033497
H -5.828857972657235 -5.017979102342468 -6.322657199360471
O 0.9911653592437042 12.639420232874077 5.053731778226906
H 0.6779448434812716 12.913607927210311 5.928763991165434
H 1.8147747785359347 12.16350203658136 5.238478467481679
O -3.199078802824863 -2.83874114496745 -4.944840581342268
H -2.2975128578976522 -2.806978501327072 -4.591093018359167
H -3.2104461516899425 -3.6432941566125465 -5.484773150403058
O 5.825080773067214 7.6874896372966806 -11.87495403056183
H 6.100233968691778 6.770894891889748 -12.02698083257382
H 5.547600575807932 7.697654330163618 -10.946588066381825
O 4.164229583937969 4.877704011395627 -10.560156369997511
H 4.764867226839772 4.262571933736201 -10.113150435066256
H 3.3400952617599264 4.376092039320719 -10.65043368043186
O -6.655948670656371 3.1442767773364952 -8.035021074771029
H -7.525060403960715 3.3651951318233166 -8.402182119250904
H -6.858906562779952 2.5637941590078306 -7.28614861023314
O -7.08798002176195 -1.325596981730412 -11.413923555385617
H -7.900094383092935 -1.01535993103384 -11.841931257880628
H -7.204973051024174 -1.0798766061883736 -10.483925666975365
O -0.2456117258391386 3.4660317786357817 -2.1096493629573088
H 0.36308492285672234 2.7145167616153993 -2.0489787278915457
H 0.3375174004543928 4.23992820283897 -2.112236054601038
O -1.900475833872357 4.719954379907958 -8.02700742991232
H -1.8271129365715844 5.064334321782667 -7.124240739214215
H -2.842430340670098 4.809647624172181 -8.235906384808661
O -5.166444636494319 4.964569939458489 11.012648670285532
H -4.790626991931874 4.430968133978482 11.728887155794382
H -5.173634195297288 4.3639363880133395 10.252287182950328
O 4.8638113222175186 -10.704149383132432 11.670288751823268
H 5.109598092145363 -11.641335875774708 11.654871273517507
H 4.377836497770517 -10.575968184581669 10.841820288547934
O 4.267219362179861 6.36142497361401 3.353448580845562
H 4.021841500822155 5.828744892674438 4.124816841422655
H 3.7768477547993533 7.188374627990406 3.4744936142084173
O 9.79249733154678 10.7597400248541 4.984966226145077
H 10.742870700002136 10.774791752377338 4.796468844387713
H 9.385214852822964 11.060468658827126 4.158742760287744
O -1.5885198111287209 9.492201715812772 -3.096368181763593
H -0.777939585763457 9.276200749509645 -2.6113211348671954
H -2.161332645594575 9.895709870313732 -2.4270188184095813
O -5.994010716576179 -5.739685027034021 -1.887651252092767
H -6.403234662132638 -4.904992692825977 -2.161132195665685
H -5.93299115444441 -6.250530908943979 -2.708793774602036
O -4.973530963976279 -0.3168958077459032 -7.726844484306952
H -5.037084931664824 -0.47603612815293683 -6.773113595370354
H -4.667281865300208 0.6001807326762285 -7.791218802691457
O -0.13223188081060844 7.894903383155413 6.594001838333004
H -0.501864499933665 6.999395169999326 6.573899003950157
H 0.6454360016002942 7.84009716015486 6.018509973154221
O -6.804767594029419 6.720516089687982 3.0479031105744356
H -6.063355200949283 7.331146667163705 2.9198198636650496
H -6.8355492376515175 6.213390631637636 2.222773905835476
C -2.2977782309383046 4.960743748155358 4.521771592864467
O -1.3332595557321028 4.545942644499935 3.9469133260849816
O -3.2622969061445075 5.3755448518107825 5.096629859643953