146

C -5.3564454929577465 1.0091607042253532 -0.0734429577464788
C -4.079135492957747 0.16955070422535368 -0.19788295774647868
C -4.333545492957747 -1.2789292957746463 0.3017270422535212
C -3.1403854929577464 -2.1745492957746464 0.7330270422535212
C -2.905235492957746 0.902300704225353 0.41966704225352136
C -2.7423854929577463 1.056130704225354 1.8024770422535212
C -1.8861754929577463 1.3499307042253532 -0.4326129577464788
C -1.5304554929577463 1.5279207042253526 2.3254170422535214
H -3.5237954929577464 0.7301007042253529 2.484817042253521
C -0.6776454929577462 1.8010507042253527 0.08546704225352131
H -1.9759254929577463 1.2426607042253535 -1.5115229577464788
C -0.4680254929577463 1.8513207042253539 1.4698070422535212
H -1.3950654929577464 1.5446707042253527 3.404047042253521
H 0.1461845070422536 1.9972507042253538 -0.6030529577464789
C -1.8679654929577463 -2.0866092957746467 -0.08765295774647863
C -0.6628654929577462 -1.814079295774647 0.5787970422535212
C -1.8438954929577462 -2.213429295774647 -1.4808029577464787
C 0.5129345070422537 -1.5763292957746469 -0.13022295774647863
H -0.6401854929577462 -1.7032692957746463 1.6609470422535213
C -0.6547954929577462 -1.9962392957746466 -2.1933129577464787
H -2.7578654929577464 -2.4351492957746466 -2.026182957746479
C 0.5308845070422537 -1.645769295774647 -1.5261029577464789
H 1.4044045070422537 -1.2610992957746463 0.41551704225352126
H -0.6795654929577464 -2.0467992957746466 -3.2793129577464786
C 1.7843245070422535 -1.2521692957746469 -2.2771629577464787
H 1.4981245070422535 -0.9384492957746469 -3.290282957746479
H 2.241984507042254 -0.38631929577464685 -1.8135029577464787
C 0.9385645070422537 2.0647807042253534 1.9815670422535212
H 1.0508945070422537 1.5807407042253532 2.9609770422535213
H 1.6053245070422537 1.5496207042253536 1.3096170422535214
C 3.9676945070422533 -1.6881692957746468 -3.314052957746479
H 4.795084507042254 -2.398849295774647 -3.4044129577464783
H 3.548404507042253 -1.4816192957746468 -4.303802957746479
H 4.307714507042253 -0.7637192957746466 -2.851282957746479
C 2.344694507042253 -3.565079295774647 -3.101282957746479
H 1.6334345070422536 -4.047909295774646 -2.4251929577464786
H 1.8561845070422536 -3.293109295774647 -4.041792957746479
H 3.1808045070422537 -4.243519295774647 -3.298122957746479
C 3.5156645070422536 -2.648489295774647 -1.1110629577464786
H 3.9311845070422535 -1.748249295774647 -0.6771029577464787
H 2.767184507042254 -3.1044092957746465 -0.45972295774647876
H 4.319224507042254 -3.371819295774647 -1.2863129577464787
C 2.963994507042253 3.381090704225353 2.401027042253521
H 3.3337945070422537 4.369820704225353 2.6912870422535216
H 3.120994507042253 2.671350704225353 3.2183370422535216
H 3.4665445070422534 3.0664207042253535 1.4881370422535212
C 1.2973745070422538 4.282440704225354 0.8488370422535213
H 1.7592145070422538 3.7367207042253527 0.02653704225352116
H 0.23311450704225378 4.4484607042253534 0.6605570422535213
H 1.7921845070422535 5.251370704225354 0.9736770422535213
C 0.7724845070422537 4.194670704225353 3.2772470422535216
H -0.2956954929577462 4.278220704225354 3.057857042253521
H 0.9298945070422537 3.612620704225354 4.190337042253521
H 1.2046345070422537 5.193640704225353 3.3918370422535213
N 2.876084507042253 -2.324759295774647 -2.4576629577464786
N 1.4527845070422536 3.504690704225353 2.1388470422535213
C -3.593905492957746 -3.637819295774647 0.8297870422535213
H -2.8952554929577463 -1.8680692957746468 1.7595270422535212
H -5.022615492957747 -1.2402792957746467 1.1579970422535213
H -4.898275492957747 -1.7933092957746464 -0.48931295774647876
H -3.883675492957746 0.07871070422535364 -1.2758929577464788
H -3.8751654929577466 -4.038529295774646 -0.1505529577464788
H -4.4603554929577465 -3.7321892957746465 1.4932570422535212
H -2.7953554929577464 -4.271929295774647 1.2313670422535212
H -5.648775492957746 1.147700704225353 0.9733970422535213
H -6.189795492957747 0.5254307042253537 -0.5943629577464788
H -5.2178854929577465 2.002970704225354 -0.5139729577464787
C 3.6710445070422537 1.0263707042253536 -0.27764295774647874
O 2.7356545070422538 1.6631507042253526 -0.7327029577464788
O 3.650814507042253 0.3883007042253537 0.7790570422535212
O 4.756604507042254 0.8696707042253538 -0.8334829577464786
O 7.984731544427352 0.9599114747770623 -0.29214879322685333
H 7.9732669429929635 0.9417601993141087 -1.2609142194333316
H 8.667086208757011 0.3144302042106324 -0.0540144073950215
O -7.123932317643428 5.764901977661769 -4.077331029526842
H -7.067787910025501 5.940661207462739 -5.028605887563678
H -6.943226047115994 4.815758915822529 -4.003611044078544
O -0.19244279138223863 1.5355701035303715 -4.724971248045324
H -0.2362601130871711 0.5706102899729509 -4.648160067623228
H -0.809975224678888 1.7415148142424408 -5.442747267606051
O 1.8556235168669313 3.7587850280375683 9.225705498046395
H 2.0685095940185887 4.241785978390134 10.038329000668302
H 1.4320681389382877 2.9461275386531387 9.540587366490927
O -5.185629131575541 6.936492290382676 5.997526017270072
H -4.30879411862165 7.135951302093941 5.636494412551987
H -5.422740049674106 6.09293378705884 5.583823940542743
O 7.177912566585416 -1.7161178615829071 -2.543081894339047
H 7.31381757465012 -0.7567666261905663 -2.531149047481579
H 8.073559862437172 -2.0802181675102327 -2.4782063754042016
O 3.2522290930568847 0.9867168113188904 -5.977240217386464
H 3.76588306165935 0.4228483197088321 -6.5748849961709315
H 3.7738788561330745 0.9987115895355388 -5.160723472746105
O 3.9930097121155312 -8.98694604682175 13.37416443716326
H 3.8117477047191755 -8.81185835460787 14.309822356282135
H 4.264760436437602 -9.91692782149353 13.358435899127079
O 0.8658520712279654 -1.0547203211302787 5.519039579317777
H 1.100489458384537 -1.6724839641197917 4.810321909967941
H -0.10288036606299289 -1.0378929104722547 5.503669234791241
O 7.992649138326652 -3.1779958720086805 0.5614238967637993
H 8.198302227053869 -3.2043276900685185 1.5079865198134423
H 8.734223731231841 -3.6447660059965235 0.14771541307695024
O 3.181986930836585 -4.947492414725658 3.948466269270165
H 3.765603637767768 -4.967986934555616 4.721731340864467
H 3.113938046328647 -5.876616148181699 3.6818947375081796
O -10.7088854075627 -3.3581944733217837 5.187179010301695
H -10.709545591604273 -3.4287193780907597 6.1536122252029415
H -11.637262499192271 -3.1931887330975304 4.96390557764463
O -3.2403116744639573 2.411895362279387 -5.5098971595232165
H -2.557052226792639 2.2083693527552875 -6.1661753379773545
H -3.0251305562750845 3.3108229172945256 -5.219056513276014
O -1.843760266362429 11.667075369265225 7.052631799882937
H -1.91312391157272 11.867085885447944 7.998227820940272
H -2.0481185151489143 12.509502725550085 6.619600854296108
O 0.14470264613467165 -8.287561466598692 8.393435722737351
H 0.802542898098511 -7.597392552382533 8.22057615648242
H -0.672105446191285 -7.79491710261671 8.563987812280747
O -7.3602120236832675 12.082462274707384 1.2171613609396736
H -8.277612734864038 12.391191885781504 1.2622093272760497
H -7.171313665329376 11.777787935859058 2.1174129378661126
O 0.36359395725801513 1.342231160397281 5.815461585977477
H 1.120495497048975 1.4678366335697346 6.407315183644332
H -0.027523601884822835 0.5059959890583952 6.109909777423734
O -11.079539403405803 -1.056952114469082 0.32190808092047707
H -11.493766143338403 -0.7049090061614711 1.1240609433587574
H -10.489146007385713 -0.34545653267936594 0.03178462559571327
O -3.0184748850405514 -6.14640031603636 -11.909994126619715
H -3.5156823897606913 -5.784340727429243 -12.658769732824684
H -2.646484446947989 -6.972555221517857 -12.253582732974117
O -0.919284941107815 3.424005130509628 7.755055427761162
H -0.186245406318867 3.389794974354249 8.38786666545549
H -1.711003728220371 3.42377310723662 8.31375324644155
O -6.335882760649964 2.030112152271466 -8.800070178787882
H -6.319926077325967 2.406473842990892 -7.9072854237006815
H -5.427073889308884 1.7252704447934897 -8.941844340939047
O 10.18831697019555 -4.170484224945234 -6.149028227443704
H 9.385845449980945 -3.9031093438201054 -6.621804590101342
H 9.963615735933718 -4.0419972885837305 -5.215238954210366
O -3.582506643113224 3.0707230421432214 6.274324441514577
H -3.7860618902420415 3.0319830190577046 7.220914019355819
H -3.2619067213947646 2.180058484183533 6.06721509916472
O 2.239061510061033 6.038907672288477 6.520669861313369
H 1.6378524474998812 6.098847174330626 5.763093280307012
H 1.711268933666195 5.5992530675984815 7.2041175690258035
C 10.174546854188112 1.9683186625630005 -5.477344174275915
O 10.334502948213967 1.7334701757742828 -6.640133275332955
O 10.014590760162259 2.2031671493517186 -4.314555073218873