146

C -5.3564454929577465 1.0091607042253532 -0.0734429577464788
C -4.079135492957747 0.16955070422535368 -0.19788295774647868
C -4.333545492957747 -1.2789292957746463 0.3017270422535212
C -3.1403854929577464 -2.1745492957746464 0.7330270422535212
C -2.905235492957746 0.902300704225353 0.41966704225352136
C -2.7423854929577463 1.056130704225354 1.8024770422535212
C -1.8861754929577463 1.3499307042253532 -0.4326129577464788
C -1.5304554929577463 1.5279207042253526 2.3254170422535214
H -3.5237954929577464 0.7301007042253529 2.484817042253521
C -0.6776454929577462 1.8010507042253527 0.08546704225352131
H -1.9759254929577463 1.2426607042253535 -1.5115229577464788
C -0.4680254929577463 1.8513207042253539 1.4698070422535212
H -1.3950654929577464 1.5446707042253527 3.404047042253521
H 0.1461845070422536 1.9972507042253538 -0.6030529577464789
C -1.8679654929577463 -2.0866092957746467 -0.08765295774647863
C -0.6628654929577462 -1.814079295774647 0.5787970422535212
C -1.8438954929577462 -2.213429295774647 -1.4808029577464787
C 0.5129345070422537 -1.5763292957746469 -0.13022295774647863
H -0.6401854929577462 -1.7032692957746463 1.6609470422535213
C -0.6547954929577462 -1.9962392957746466 -2.1933129577464787
H -2.7578654929577464 -2.4351492957746466 -2.026182957746479
C 0.5308845070422537 -1.645769295774647 -1.5261029577464789
H 1.4044045070422537 -1.2610992957746463 0.41551704225352126
H -0.6795654929577464 -2.0467992957746466 -3.2793129577464786
C 1.7843245070422535 -1.2521692957746469 -2.2771629577464787
H 1.4981245070422535 -0.9384492957746469 -3.290282957746479
H 2.241984507042254 -0.38631929577464685 -1.8135029577464787
C 0.9385645070422537 2.0647807042253534 1.9815670422535212
H 1.0508945070422537 1.5807407042253532 2.9609770422535213
H 1.6053245070422537 1.5496207042253536 1.3096170422535214
C 3.9676945070422533 -1.6881692957746468 -3.314052957746479
H 4.795084507042254 -2.398849295774647 -3.4044129577464783
H 3.548404507042253 -1.4816192957746468 -4.303802957746479
H 4.307714507042253 -0.7637192957746466 -2.851282957746479
C 2.344694507042253 -3.565079295774647 -3.101282957746479
H 1.6334345070422536 -4.047909295774646 -2.4251929577464786
H 1.8561845070422536 -3.293109295774647 -4.041792957746479
H 3.1808045070422537 -4.243519295774647 -3.298122957746479
C 3.5156645070422536 -2.648489295774647 -1.1110629577464786
H 3.9311845070422535 -1.748249295774647 -0.6771029577464787
H 2.767184507042254 -3.1044092957746465 -0.45972295774647876
H 4.319224507042254 -3.371819295774647 -1.2863129577464787
C 2.963994507042253 3.381090704225353 2.401027042253521
H 3.3337945070422537 4.369820704225353 2.6912870422535216
H 3.120994507042253 2.671350704225353 3.2183370422535216
H 3.4665445070422534 3.0664207042253535 1.4881370422535212
C 1.2973745070422538 4.282440704225354 0.8488370422535213
H 1.7592145070422538 3.7367207042253527 0.02653704225352116
H 0.23311450704225378 4.4484607042253534 0.6605570422535213
H 1.7921845070422535 5.251370704225354 0.9736770422535213
C 0.7724845070422537 4.194670704225353 3.2772470422535216
H -0.2956954929577462 4.278220704225354 3.057857042253521
H 0.9298945070422537 3.612620704225354 4.190337042253521
H 1.2046345070422537 5.193640704225353 3.3918370422535213
N 2.876084507042253 -2.324759295774647 -2.4576629577464786
N 1.4527845070422536 3.504690704225353 2.1388470422535213
C -3.593905492957746 -3.637819295774647 0.8297870422535213
H -2.8952554929577463 -1.8680692957746468 1.7595270422535212
H -5.022615492957747 -1.2402792957746467 1.1579970422535213
H -4.898275492957747 -1.7933092957746464 -0.48931295774647876
H -3.883675492957746 0.07871070422535364 -1.2758929577464788
H -3.8751654929577466 -4.038529295774646 -0.1505529577464788
H -4.4603554929577465 -3.7321892957746465 1.4932570422535212
H -2.7953554929577464 -4.271929295774647 1.2313670422535212
H -5.648775492957746 1.147700704225353 0.9733970422535213
H -6.189795492957747 0.5254307042253537 -0.5943629577464788
H -5.2178854929577465 2.002970704225354 -0.5139729577464787
C 3.6710445070422537 1.0263707042253536 -0.27764295774647874
O 2.7356545070422538 1.6631507042253526 -0.7327029577464788
O 3.650814507042253 0.3883007042253537 0.7790570422535212
O 4.756604507042254 0.8696707042253538 -0.8334829577464786
O 3.7407760663752265 -0.6463417546560901 9.486603346958555
H 3.6619671629782253 -0.7993113998405181 10.44020536105957
H 4.640358748985193 -0.938661668895018 9.276217964415943
O 1.1128707792848491 3.2109620985972063 -13.188717835074458
H 1.5456300499003062 2.447217023391552 -13.599059437517457
H 0.7774261945947227 3.7218552373586684 -13.940666686838014
O -6.105903303946482 0.6789510148382911 3.7516564667987886
H -6.069626407210796 0.5721842682274056 2.7892364932522318
H -6.20639813661842 1.6344715806260666 3.877526166341008
O -6.65021425444715 -4.43709782180771 10.060834405628746
H -6.632979132638443 -4.438388040806869 11.02968353878167
H -6.144627706169683 -5.2268695336065845 9.816693401815067
O -13.536891089936407 -1.3872275157183145 7.877048565341251
H -13.495290246861945 -1.394200918904379 8.845133323202617
H -12.620365660519589 -1.5403466941285542 7.60228030164384
O -4.725717112343027 4.173425758655448 -8.494288949384696
H -4.702515363705533 4.146300692877146 -9.462634583219375
H -5.504568357862155 4.713968930895622 -8.293874976324359
O 6.649448327212706 -3.0707490035020073 -7.564352999073045
H 5.862892762117303 -3.631542184760445 -7.488138120135309
H 6.313242963766873 -2.2469072945890134 -7.94803611903739
O -5.483249175949017 1.384302488025321 -9.621435968016948
H -6.1228243660991595 2.1018556072642824 -9.744026563556924
H -5.978016963660762 0.7110852406901556 -9.130574156064451
O 10.97357117399188 -2.4336734038650425 4.1862943693067844
H 10.746226262125997 -1.7798863988287854 3.508176238009282
H 10.7773169424358 -1.9827936759764118 5.02125166873916
O 7.085292162435722 -0.11439918612232414 -0.4208084339069056
H 6.892399275792316 0.028065748493426357 0.5180544067611581
H 7.788334367260807 0.52362822291753 -0.6147533432202785
O -7.099186529805401 1.4094557131813605 7.677170538365952
H -7.392844121584447 1.2534620384453348 8.58733456156885
H -7.90895941912785 1.3234468859250972 7.151973152945601
O -4.074317039345116 0.8597034815475975 11.698400391827107
H -4.1139055567564515 0.5094162471850634 12.601007149851785
H -3.1287795616526544 0.8543595280040641 11.486522444084777
O 4.0872246920647 -5.85935294596394 -12.066344931847894
H 3.9204840278421136 -6.298424957552202 -11.218771527100877
H 3.8087955039795496 -4.943738863665406 -11.914391044701649
O 10.806330230631989 3.471656153241949 -1.3809781345503875
H 10.779000031795574 4.239612387235129 -0.7906700456657969
H 10.473509953973243 2.7441804636959857 -0.8341950616005933
O -7.656253497162025 -9.342510869235188 -7.87548734065816
H -7.327543262130811 -9.914912325738065 -8.58490506730383
H -7.173110410422545 -9.641613601862423 -7.090584634986451
O 0.5559335718244252 -1.9328583102726866 10.614994389022431
H -0.32158770197643305 -1.7945092546265067 10.227975901442406
H 0.7960123454343393 -1.0628366073686228 10.967678898517637
O -2.808489334547085 -0.8328670928526833 -11.785319770637571
H -2.762144721136919 -1.7742746938995873 -12.010200322039818
H -2.300167605411009 -0.7632873532337959 -10.963292019389064
O 2.4573576935458377 8.620255321264425 8.509112586516254
H 2.9045463122549475 8.654092374888693 7.6501336868923655
H 3.010518843341713 8.025642923050725 9.037705797357123
O -5.291635570683937 8.13523795988034 6.209766062677398
H -4.675187102367259 8.192249402323535 5.464307587482053
H -5.397101318525166 9.054624354554425 6.497111808461943
O 5.171581655587042 -8.53320304903569 -0.08233247145891742
H 5.570117004611021 -8.815294317827558 0.75466301750726
H 5.015495189982394 -7.584797516921588 0.04065495151765075
O 6.782028127649398 11.699680130256565 2.1860856708126577
H 7.26261244354678 12.265775387190365 1.5635567700453894
H 5.849947685995982 11.851774073418563 1.9691630416551447
O -8.534180265940188 -7.228228454375993 1.670452625880693
H -8.764990675651454 -7.726012630748917 2.469142068293481
H -8.297805190312438 -7.91366405553509 1.0275943175532332
O -10.489215352804747 -10.402500087515667 2.264062561433062
H -10.658622559665782 -9.85145688797128 1.4852044566415485
H -11.120602909994979 -10.07680145800033 2.923025458459275
O 8.162791822429838 6.475296692176656 -10.518240464684672
H 7.9844105387992945 7.0266288990925805 -11.294887277700433
H 7.634959767261323 6.883202190880573 -9.815411630640643
C 4.077633010435543 -7.270866781788786 -4.410148656282618
O 3.845042143605532 -7.122538491240426 -3.245366073913588
O 4.310223877265554 -7.419195072337146 -5.574931238651648