146

C -5.3564454929577465 1.0091607042253532 -0.0734429577464788
C -4.079135492957747 0.16955070422535368 -0.19788295774647868
C -4.333545492957747 -1.2789292957746463 0.3017270422535212
C -3.1403854929577464 -2.1745492957746464 0.7330270422535212
C -2.905235492957746 0.902300704225353 0.41966704225352136
C -2.7423854929577463 1.056130704225354 1.8024770422535212
C -1.8861754929577463 1.3499307042253532 -0.4326129577464788
C -1.5304554929577463 1.5279207042253526 2.3254170422535214
H -3.5237954929577464 0.7301007042253529 2.484817042253521
C -0.6776454929577462 1.8010507042253527 0.08546704225352131
H -1.9759254929577463 1.2426607042253535 -1.5115229577464788
C -0.4680254929577463 1.8513207042253539 1.4698070422535212
H -1.3950654929577464 1.5446707042253527 3.404047042253521
H 0.1461845070422536 1.9972507042253538 -0.6030529577464789
C -1.8679654929577463 -2.0866092957746467 -0.08765295774647863
C -0.6628654929577462 -1.814079295774647 0.5787970422535212
C -1.8438954929577462 -2.213429295774647 -1.4808029577464787
C 0.5129345070422537 -1.5763292957746469 -0.13022295774647863
H -0.6401854929577462 -1.7032692957746463 1.6609470422535213
C -0.6547954929577462 -1.9962392957746466 -2.1933129577464787
H -2.7578654929577464 -2.4351492957746466 -2.026182957746479
C 0.5308845070422537 -1.645769295774647 -1.5261029577464789
H 1.4044045070422537 -1.2610992957746463 0.41551704225352126
H -0.6795654929577464 -2.0467992957746466 -3.2793129577464786
C 1.7843245070422535 -1.2521692957746469 -2.2771629577464787
H 1.4981245070422535 -0.9384492957746469 -3.290282957746479
H 2.241984507042254 -0.38631929577464685 -1.8135029577464787
C 0.9385645070422537 2.0647807042253534 1.9815670422535212
H 1.0508945070422537 1.5807407042253532 2.9609770422535213
H 1.6053245070422537 1.5496207042253536 1.3096170422535214
C 3.9676945070422533 -1.6881692957746468 -3.314052957746479
H 4.795084507042254 -2.398849295774647 -3.4044129577464783
H 3.548404507042253 -1.4816192957746468 -4.303802957746479
H 4.307714507042253 -0.7637192957746466 -2.851282957746479
C 2.344694507042253 -3.565079295774647 -3.101282957746479
H 1.6334345070422536 -4.047909295774646 -2.4251929577464786
H 1.8561845070422536 -3.293109295774647 -4.041792957746479
H 3.1808045070422537 -4.243519295774647 -3.298122957746479
C 3.5156645070422536 -2.648489295774647 -1.1110629577464786
H 3.9311845070422535 -1.748249295774647 -0.6771029577464787
H 2.767184507042254 -3.1044092957746465 -0.45972295774647876
H 4.319224507042254 -3.371819295774647 -1.2863129577464787
C 2.963994507042253 3.381090704225353 2.401027042253521
H 3.3337945070422537 4.369820704225353 2.6912870422535216
H 3.120994507042253 2.671350704225353 3.2183370422535216
H 3.4665445070422534 3.0664207042253535 1.4881370422535212
C 1.2973745070422538 4.282440704225354 0.8488370422535213
H 1.7592145070422538 3.7367207042253527 0.02653704225352116
H 0.23311450704225378 4.4484607042253534 0.6605570422535213
H 1.7921845070422535 5.251370704225354 0.9736770422535213
C 0.7724845070422537 4.194670704225353 3.2772470422535216
H -0.2956954929577462 4.278220704225354 3.057857042253521
H 0.9298945070422537 3.612620704225354 4.190337042253521
H 1.2046345070422537 5.193640704225353 3.3918370422535213
N 2.876084507042253 -2.324759295774647 -2.4576629577464786
N 1.4527845070422536 3.504690704225353 2.1388470422535213
C -3.593905492957746 -3.637819295774647 0.8297870422535213
H -2.8952554929577463 -1.8680692957746468 1.7595270422535212
H -5.022615492957747 -1.2402792957746467 1.1579970422535213
H -4.898275492957747 -1.7933092957746464 -0.48931295774647876
H -3.883675492957746 0.07871070422535364 -1.2758929577464788
H -3.8751654929577466 -4.038529295774646 -0.1505529577464788
H -4.4603554929577465 -3.7321892957746465 1.4932570422535212
H -2.7953554929577464 -4.271929295774647 1.2313670422535212
H -5.648775492957746 1.147700704225353 0.9733970422535213
H -6.189795492957747 0.5254307042253537 -0.5943629577464788
H -5.2178854929577465 2.002970704225354 -0.5139729577464787
C 3.6710445070422537 1.0263707042253536 -0.27764295774647874
O 2.7356545070422538 1.6631507042253526 -0.7327029577464788
O 3.650814507042253 0.3883007042253537 0.7790570422535212
O 4.756604507042254 0.8696707042253538 -0.8334829577464786
O 1.587579194830586 5.395900126718073 7.940752702318026
H 1.794367195559141 4.597327825757572 7.432335196921783
H 1.432964162293731 6.071211506929638 7.263249436074698
O 2.6699112859800422 -4.704071086837936 -5.401271796911556
H 2.7947886247330516 -4.803432206903595 -6.357043932404773
H 3.2033760695733626 -5.417572382462912 -5.020098384791545
O 0.4971393373398638 -4.827402067928646 -1.444493261297912
H -0.39808764353716075 -4.6343421056409575 -1.1278485699303094
H 0.6825125583262737 -5.712711329928812 -1.0968925940691998
O -1.654213804673751 -9.729942521594602 -0.6005975262515841
H -2.2804268094410234 -9.832015280148541 -1.3329948101907956
H -1.1259205019825995 -8.956967793939222 -0.8503538095314382
O 6.695671208295396 5.46067625273254 -7.619839910203438
H 6.933038825912708 4.523143366866677 -7.680305263313366
H 5.8768621435136925 5.528415180096079 -8.13357631873504
O -4.925772704283782 -9.326558770242357 -3.622736916502763
H -4.705218775847883 -10.193973252896669 -3.9941065932845996
H -4.082335756413294 -8.999193175546525 -3.275738607174951
O 10.493408123767301 -1.6740276808716632 -0.12135409457179192
H 10.51834289716327 -1.8531194369589827 0.8306289708643813
H 9.567670406819975 -1.8260721195490182 -0.3639527598369551
O 8.999495249610618 -10.647908674947187 -9.049303924352662
H 8.986001231782602 -11.599888957157422 -9.229633651978986
H 9.66090177787878 -10.551948850829152 -8.347666510285046
O 5.627296067873347 -0.8980639936590136 -0.06893246699444806
H 5.664060195751325 -0.8037116649073541 -1.0326302380100874
H 6.455199378032227 -1.3496561036662191 0.1537839884083967
O 2.1989301924529006 10.041068815648373 -0.8744634900835973
H 1.637610633089321 10.675976961702448 -0.4045918530910493
H 2.8217369921428173 9.734218351341804 -0.19850755430461042
O 2.3072113619803067 -12.872909287299908 0.9006725816628636
H 2.470758520720822 -13.18885942596867 1.8020022625472212
H 2.5638636402543975 -11.93897132090906 0.9298518086992985
O 8.349325693539841 4.001121716924939 -5.887008689068361
H 7.761940343031421 4.483666685004825 -6.487921462013725
H 8.01710723958682 4.225341535446128 -5.00478518216357
O -6.023284077994359 -9.172163262459247 4.640379468625362
H -5.605221141250683 -9.68414931337805 3.931816823910146
H -5.344098399199772 -9.12923674286812 5.3301809414681856
O 7.120706912857225 0.272491613977053 -11.003068220671995
H 6.903983975355477 1.0019527061478892 -11.602972413247398
H 6.305490349298597 0.1350660454509729 -10.497600010084087
O 7.642628767910543 -3.4691868992649337 2.0869074192762254
H 7.767121867394366 -3.975194620790602 1.2699465812690942
H 8.235473544511116 -2.7095903259510674 1.9843888308775908
O 2.793067914637156 -3.126133262221737 7.750752474468364
H 2.3994618997096904 -3.1783548749630897 6.866832475217518
H 3.6906160236437158 -3.4700775129654033 7.627985668290454
O 1.211566342237348 11.886255518811438 7.238709148334873
H 1.627550088613855 12.189492192114464 8.059667368718031
H 0.5561908470238006 12.572133295355918 7.0411829976205915
O 5.8269794644204 -0.20488894061472174 9.259360507480771
H 5.71841134451104 -1.1411744383363536 9.484193305345105
H 4.924054863568319 0.14634921314000499 9.277273319183104
O 0.055521181522754426 -6.6351458153876335 4.294744523200525
H -0.13931639251953393 -6.637495655208476 3.3455342436027258
H -0.6852169122641216 -6.146941257673347 4.684520523667437
O 4.236986633652737 -3.1633818037409793 2.170110776665264
H 3.5482392379649608 -3.6754828869426306 2.6199405916142084
H 3.7485375762953614 -2.6301086774540465 1.5251307494963204
O -3.9686457930441104 -7.686028832152002 4.4231097407209266
H -3.246465624857315 -8.322192320548625 4.310330409242445
H -3.5162998528793508 -6.846281827118869 4.593902194460378
O -1.4895418364877706 12.751141896403107 -6.403423440648672
H -1.0646417665487187 13.608868734439834 -6.252652227291129
H -0.747122491164327 12.136389531307755 -6.502695740910015
O 1.2665533147000057 9.31405874536275 -6.049097112557839
H 1.2836466774213169 9.257294380337491 -7.01628529523697
H 1.5343306055034138 8.429473426025332 -5.757950964304593
O -8.930847544213536 -8.256466199647933 0.5745456856900639
H -8.932027978545651 -7.31221205039224 0.3569449846613284
H -8.870925203358976 -8.273743530803046 1.5415372839962052
C -10.996990435849899 -2.8784786000984237 10.93657523070594
O -10.267968810578624 -3.481553606904366 10.20333157178154
O -11.726012061121175 -2.275403593292482 11.669818889630339