146

C -5.3564454929577465 1.0091607042253532 -0.0734429577464788
C -4.079135492957747 0.16955070422535368 -0.19788295774647868
C -4.333545492957747 -1.2789292957746463 0.3017270422535212
C -3.1403854929577464 -2.1745492957746464 0.7330270422535212
C -2.905235492957746 0.902300704225353 0.41966704225352136
C -2.7423854929577463 1.056130704225354 1.8024770422535212
C -1.8861754929577463 1.3499307042253532 -0.4326129577464788
C -1.5304554929577463 1.5279207042253526 2.3254170422535214
H -3.5237954929577464 0.7301007042253529 2.484817042253521
C -0.6776454929577462 1.8010507042253527 0.08546704225352131
H -1.9759254929577463 1.2426607042253535 -1.5115229577464788
C -0.4680254929577463 1.8513207042253539 1.4698070422535212
H -1.3950654929577464 1.5446707042253527 3.404047042253521
H 0.1461845070422536 1.9972507042253538 -0.6030529577464789
C -1.8679654929577463 -2.0866092957746467 -0.08765295774647863
C -0.6628654929577462 -1.814079295774647 0.5787970422535212
C -1.8438954929577462 -2.213429295774647 -1.4808029577464787
C 0.5129345070422537 -1.5763292957746469 -0.13022295774647863
H -0.6401854929577462 -1.7032692957746463 1.6609470422535213
C -0.6547954929577462 -1.9962392957746466 -2.1933129577464787
H -2.7578654929577464 -2.4351492957746466 -2.026182957746479
C 0.5308845070422537 -1.645769295774647 -1.5261029577464789
H 1.4044045070422537 -1.2610992957746463 0.41551704225352126
H -0.6795654929577464 -2.0467992957746466 -3.2793129577464786
C 1.7843245070422535 -1.2521692957746469 -2.2771629577464787
H 1.4981245070422535 -0.9384492957746469 -3.290282957746479
H 2.241984507042254 -0.38631929577464685 -1.8135029577464787
C 0.9385645070422537 2.0647807042253534 1.9815670422535212
H 1.0508945070422537 1.5807407042253532 2.9609770422535213
H 1.6053245070422537 1.5496207042253536 1.3096170422535214
C 3.9676945070422533 -1.6881692957746468 -3.314052957746479
H 4.795084507042254 -2.398849295774647 -3.4044129577464783
H 3.548404507042253 -1.4816192957746468 -4.303802957746479
H 4.307714507042253 -0.7637192957746466 -2.851282957746479
C 2.344694507042253 -3.565079295774647 -3.101282957746479
H 1.6334345070422536 -4.047909295774646 -2.4251929577464786
H 1.8561845070422536 -3.293109295774647 -4.041792957746479
H 3.1808045070422537 -4.243519295774647 -3.298122957746479
C 3.5156645070422536 -2.648489295774647 -1.1110629577464786
H 3.9311845070422535 -1.748249295774647 -0.6771029577464787
H 2.767184507042254 -3.1044092957746465 -0.45972295774647876
H 4.319224507042254 -3.371819295774647 -1.2863129577464787
C 2.963994507042253 3.381090704225353 2.401027042253521
H 3.3337945070422537 4.369820704225353 2.6912870422535216
H 3.120994507042253 2.671350704225353 3.2183370422535216
H 3.4665445070422534 3.0664207042253535 1.4881370422535212
C 1.2973745070422538 4.282440704225354 0.8488370422535213
H 1.7592145070422538 3.7367207042253527 0.02653704225352116
H 0.23311450704225378 4.4484607042253534 0.6605570422535213
H 1.7921845070422535 5.251370704225354 0.9736770422535213
C 0.7724845070422537 4.194670704225353 3.2772470422535216
H -0.2956954929577462 4.278220704225354 3.057857042253521
H 0.9298945070422537 3.612620704225354 4.190337042253521
H 1.2046345070422537 5.193640704225353 3.3918370422535213
N 2.876084507042253 -2.324759295774647 -2.4576629577464786
N 1.4527845070422536 3.504690704225353 2.1388470422535213
C -3.593905492957746 -3.637819295774647 0.8297870422535213
H -2.8952554929577463 -1.8680692957746468 1.7595270422535212
H -5.022615492957747 -1.2402792957746467 1.1579970422535213
H -4.898275492957747 -1.7933092957746464 -0.48931295774647876
H -3.883675492957746 0.07871070422535364 -1.2758929577464788
H -3.8751654929577466 -4.038529295774646 -0.1505529577464788
H -4.4603554929577465 -3.7321892957746465 1.4932570422535212
H -2.7953554929577464 -4.271929295774647 1.2313670422535212
H -5.648775492957746 1.147700704225353 0.9733970422535213
H -6.189795492957747 0.5254307042253537 -0.5943629577464788
H -5.2178854929577465 2.002970704225354 -0.5139729577464787
C 3.6710445070422537 1.0263707042253536 -0.27764295774647874
O 2.7356545070422538 1.6631507042253526 -0.7327029577464788
O 3.650814507042253 0.3883007042253537 0.7790570422535212
O 4.756604507042254 0.8696707042253538 -0.8334829577464786
O 6.999177807411178 8.696898749149737 -1.0779929721340038
H 6.94215908264535 8.34084018274875 -1.9774030672622238
H 7.190266499353195 9.637605816023783 -1.2103457977370833
O -14.919499161053963 2.410358845995574 -4.253976831228546
H -15.378235356311826 3.126804149222971 -4.7179106492928735
H -14.546547570246336 1.8707443538963044 -4.967198574538794
O -2.03727501389712 0.45611855388848105 8.005303225356649
H -1.9904046360869638 0.48733789862600363 7.037937794354437
H -1.6644213636694216 1.3055767105093365 8.285237038895097
O 6.724458800802353 -12.657667283344916 -4.609642947088082
H 6.632256643553518 -13.241175308800045 -5.377747434334522
H 6.839397925890323 -11.777004700486364 -4.997179212458066
O 4.4364533434349 -1.2778053508802527 11.500207175958401
H 5.145570665601031 -0.9228617789765003 10.943309482420224
H 4.760988866139892 -2.1520569936723795 11.763499226498983
O -9.378206798336375 -0.867863422439116 -9.933960266972289
H -9.57233272588017 -0.9085619047752131 -10.882446489692896
H -8.532937386187147 -0.39629577519223025 -9.888074329530264
O 5.006225197659059 1.3294708691325323 -9.941079553532287
H 5.68285677728023 1.8660284478227247 -10.38067371535598
H 4.408097599515053 1.9828588751251792 -9.548282615836186
O -0.2682175315682451 -5.323266880883588 -1.0841909101910243
H -0.268025570794197 -5.52629723006113 -2.0316854998135225
H -0.39163287010806513 -6.185719349128445 -0.6600372369410398
O 0.9570142236955861 6.800336108222911 6.00149944676844
H 1.2367058415788152 7.337314900223114 5.244932375896423
H 0.8043472398168934 7.448846779394443 6.705124805684697
O 9.261219192050472 -5.556424411147976 2.9356436856885537
H 9.212348124040458 -5.566336024946459 1.9679243381897695
H 8.430774699398743 -5.969489117189331 3.216181450610456
O -2.084320787402799 5.279634069647867 -7.259739886067424
H -1.5641268430347326 5.900918523963818 -6.728353732721174
H -1.8501603290794448 5.500287766402816 -8.173765471139403
O -3.3333882982848153 -2.0312818312817567 9.326579767356343
H -3.4405594288832155 -1.4715182783224419 8.54290478980211
H -2.650168729369536 -2.667863421327735 9.067858210145209
O -15.911825889694066 -2.5513477686992934 5.384251995895394
H -16.19311422601384 -2.8803943826589267 6.251184839080006
H -14.946040868429908 -2.6267563489487005 5.407377372142232
O -1.6852890525755462 2.9931625305760403 5.745693714403833
H -1.3147705477234752 2.4669186750109144 6.47009056623447
H -1.1234401258418378 3.782176663769314 5.718409553257684
O -0.4197015338947364 -9.91640964358294 -0.0858546880104698
H 0.06688681071530334 -10.706477529511286 0.1934155671446003
H 0.10971615297756299 -9.561230560061471 -0.8155989416744731
O 6.0490253145990085 5.744671348122454 -2.028400375856919
H 6.014599173703187 5.707425569998151 -1.0607253530652088
H 5.420582356558998 5.06352645075342 -2.3113544738623153
O -0.33189416328447585 -9.858924813176792 10.594769863654648
H -0.8241160284237914 -9.73164062268816 11.419684239350953
H 0.5173509328139838 -9.422218444544486 10.759184761546232
O -2.5183424491807216 -9.956739659832888 -8.57859376519469
H -2.151324959748436 -10.060181285327033 -7.687770915540532
H -1.8708592728345135 -10.39518147878174 -9.150866647695203
O 8.477363074452237 8.594750323545064 3.3425628098093885
H 8.22922771279597 8.352988552209075 2.4376056588258725
H 8.5192027274548 7.746115791558548 3.8084284759156732
O 11.259699390045693 -5.483508117377408 -2.63836191561192
H 11.94470229035197 -5.992925219189021 -3.096873202118419
H 11.332285137917458 -5.77101189497964 -1.715846424484349
O -1.8286266295013838 -2.8843703233008853 6.737909074716407
H -1.4267405673613676 -3.056346267548841 5.8731089680110395
H -1.7648368106726515 -1.922726782067435 6.838579343007429
O 3.3115258421736598 2.413959709322367 -3.3704198713117623
H 2.5370272569611068 2.2565542229286977 -2.809757039248741
H 3.0227694493684516 3.1113722137316904 -3.978036105959618
O -1.9583932783565556 5.379476118515396 -12.11770548913443
H -1.9348405385218412 5.306885484502244 -13.0836988768964
H -1.7006242407202357 4.497405189832726 -11.810349109163331
O 6.131557016179382 8.891501535467834 -3.984910788545135
H 6.696757869750579 9.675261961435305 -4.057263720135227
H 6.398007607079806 8.340616653798342 -4.736237531085827
C 5.0885363348586 -9.198530175930937 5.117734106382368
O 4.4106209207915015 -9.730138026391439 5.948782866684072
O 5.766451748925698 -8.666922325470438 4.286685346080663