146

C -5.3564454929577465 1.0091607042253532 -0.0734429577464788
C -4.079135492957747 0.16955070422535368 -0.19788295774647868
C -4.333545492957747 -1.2789292957746463 0.3017270422535212
C -3.1403854929577464 -2.1745492957746464 0.7330270422535212
C -2.905235492957746 0.902300704225353 0.41966704225352136
C -2.7423854929577463 1.056130704225354 1.8024770422535212
C -1.8861754929577463 1.3499307042253532 -0.4326129577464788
C -1.5304554929577463 1.5279207042253526 2.3254170422535214
H -3.5237954929577464 0.7301007042253529 2.484817042253521
C -0.6776454929577462 1.8010507042253527 0.08546704225352131
H -1.9759254929577463 1.2426607042253535 -1.5115229577464788
C -0.4680254929577463 1.8513207042253539 1.4698070422535212
H -1.3950654929577464 1.5446707042253527 3.404047042253521
H 0.1461845070422536 1.9972507042253538 -0.6030529577464789
C -1.8679654929577463 -2.0866092957746467 -0.08765295774647863
C -0.6628654929577462 -1.814079295774647 0.5787970422535212
C -1.8438954929577462 -2.213429295774647 -1.4808029577464787
C 0.5129345070422537 -1.5763292957746469 -0.13022295774647863
H -0.6401854929577462 -1.7032692957746463 1.6609470422535213
C -0.6547954929577462 -1.9962392957746466 -2.1933129577464787
H -2.7578654929577464 -2.4351492957746466 -2.026182957746479
C 0.5308845070422537 -1.645769295774647 -1.5261029577464789
H 1.4044045070422537 -1.2610992957746463 0.41551704225352126
H -0.6795654929577464 -2.0467992957746466 -3.2793129577464786
C 1.7843245070422535 -1.2521692957746469 -2.2771629577464787
H 1.4981245070422535 -0.9384492957746469 -3.290282957746479
H 2.241984507042254 -0.38631929577464685 -1.8135029577464787
C 0.9385645070422537 2.0647807042253534 1.9815670422535212
H 1.0508945070422537 1.5807407042253532 2.9609770422535213
H 1.6053245070422537 1.5496207042253536 1.3096170422535214
C 3.9676945070422533 -1.6881692957746468 -3.314052957746479
H 4.795084507042254 -2.398849295774647 -3.4044129577464783
H 3.548404507042253 -1.4816192957746468 -4.303802957746479
H 4.307714507042253 -0.7637192957746466 -2.851282957746479
C 2.344694507042253 -3.565079295774647 -3.101282957746479
H 1.6334345070422536 -4.047909295774646 -2.4251929577464786
H 1.8561845070422536 -3.293109295774647 -4.041792957746479
H 3.1808045070422537 -4.243519295774647 -3.298122957746479
C 3.5156645070422536 -2.648489295774647 -1.1110629577464786
H 3.9311845070422535 -1.748249295774647 -0.6771029577464787
H 2.767184507042254 -3.1044092957746465 -0.45972295774647876
H 4.319224507042254 -3.371819295774647 -1.2863129577464787
C 2.963994507042253 3.381090704225353 2.401027042253521
H 3.3337945070422537 4.369820704225353 2.6912870422535216
H 3.120994507042253 2.671350704225353 3.2183370422535216
H 3.4665445070422534 3.0664207042253535 1.4881370422535212
C 1.2973745070422538 4.282440704225354 0.8488370422535213
H 1.7592145070422538 3.7367207042253527 0.02653704225352116
H 0.23311450704225378 4.4484607042253534 0.6605570422535213
H 1.7921845070422535 5.251370704225354 0.9736770422535213
C 0.7724845070422537 4.194670704225353 3.2772470422535216
H -0.2956954929577462 4.278220704225354 3.057857042253521
H 0.9298945070422537 3.612620704225354 4.190337042253521
H 1.2046345070422537 5.193640704225353 3.3918370422535213
N 2.876084507042253 -2.324759295774647 -2.4576629577464786
N 1.4527845070422536 3.504690704225353 2.1388470422535213
C -3.593905492957746 -3.637819295774647 0.8297870422535213
H -2.8952554929577463 -1.8680692957746468 1.7595270422535212
H -5.022615492957747 -1.2402792957746467 1.1579970422535213
H -4.898275492957747 -1.7933092957746464 -0.48931295774647876
H -3.883675492957746 0.07871070422535364 -1.2758929577464788
H -3.8751654929577466 -4.038529295774646 -0.1505529577464788
H -4.4603554929577465 -3.7321892957746465 1.4932570422535212
H -2.7953554929577464 -4.271929295774647 1.2313670422535212
H -5.648775492957746 1.147700704225353 0.9733970422535213
H -6.189795492957747 0.5254307042253537 -0.5943629577464788
H -5.2178854929577465 2.002970704225354 -0.5139729577464787
C 3.6710445070422537 1.0263707042253536 -0.27764295774647874
O 2.7356545070422538 1.6631507042253526 -0.7327029577464788
O 3.650814507042253 0.3883007042253537 0.7790570422535212
O 4.756604507042254 0.8696707042253538 -0.8334829577464786
O -3.130168336227209 14.419193150684553 8.17853675714129
H -3.233104337355602 15.23949374465293 7.6730879742692535
H -2.687865167326188 13.817640999105606 7.560908341335433
O 5.12329921217634 -4.506588421092381 9.340294889805161
H 5.403910153186386 -4.689734705863815 10.249515597367344
H 5.753975126631754 -5.001973318185048 8.796416558780367
O 3.8985641610472834 -11.870783055596771 0.8918707497485885
H 4.636860527496068 -12.229305577237726 1.4069896036694454
H 3.2057250409881326 -11.716991999303682 1.551631470783052
O -12.680811516195277 1.7564474209510081 0.22892159251626243
H -12.249236689484885 1.2216500199857558 -0.4542345139269912
H -13.17887875333678 2.4192798177104113 -0.2726202157035642
O 5.964429633993355 -0.1434381792944457 9.895420835776772
H 5.796012049849068 -0.42226127475452246 10.808032777233306
H 6.912062025309071 0.0585834808774397 9.88350261230792
O 3.9875657430116065 -6.903681876190565 -7.725406989129539
H 3.9572242140658243 -7.130261261649751 -8.667059011166431
H 3.398319403967132 -7.551004420282811 -7.309805954322567
O -1.1175327202924303 -10.630733870998121 -0.8725224169063995
H -1.7517158004030977 -11.36242448299317 -0.8349987427837987
H -1.364552730129414 -10.068231808199986 -0.12316636776288425
O -5.539644848810298 -9.316980437234932 5.7712920602365925
H -5.739985655938523 -9.312270221019881 4.8232368235745
H -5.789531806731332 -10.207934803614656 6.058900769405625
O -2.9280810023615933 -6.1955202229380015 -3.888152834957871
H -2.923189158804022 -6.356649711122227 -4.843653078183428
H -2.0049985610092467 -6.326313086388515 -3.6240051913238487
O -0.5187185225908003 -4.31243350743598 0.43754237373483873
H 0.1497964623808875 -3.713491214831639 0.07240787536723536
H -1.3577634548615314 -3.8588964341820806 0.2664585664499529
O 4.763034039478362 -0.9428743452630713 1.2549903498339208
H 5.543193336593024 -0.6127021835797878 0.7845595136051012
H 4.471490726219092 -1.6986224493413715 0.7231922265052823
O -4.028651735405706 -6.639318702690323 7.243409517207692
H -4.863030807764402 -6.842711316906236 6.794621855844037
H -3.4034176630685216 -6.489460717870915 6.518435804943223
O -4.649625426094962 -11.430652329360523 -4.551829254553629
H -5.181591346757675 -11.721308088906866 -5.307804681135746
H -4.33831565086148 -10.5499382413171 -4.809493499775825
O 7.486071529975292 -11.521699035502435 3.112763861508389
H 7.421043895544103 -11.140240831539527 2.2243785834394205
H 6.973587925413816 -12.34194021994129 3.053376163236605
O -1.7260113329057025 -1.774752154444883 7.757492308281351
H -1.3139277797075228 -2.552094566041662 8.163562840598669
H -1.1041648456046458 -1.0555599233639845 7.944659146380987
O 2.7870804530006215 -5.032331192020687 1.9868978659628689
H 2.3657971227955787 -4.246840506667489 1.6067767065745566
H 3.697686485703203 -4.749330015491629 2.1591445831705762
O -0.781858247965765 5.277078866830919 4.962023751216751
H -0.10867456187120972 4.6002220947992125 5.128324658703651
H -1.2178467053662145 4.9789367159690645 4.149627747291914
O 2.9825701870857717 -0.7106514727343347 10.71402090457303
H 3.634043064175061 -1.4114706318172114 10.561040665393671
H 3.4348701341366987 0.09635985269526692 10.425716511914704
O -11.380906994680657 7.320857410885192 -7.176311775293183
H -11.439839599527144 8.023468359638377 -7.841016341005017
H -11.306622639730637 6.508910410973851 -7.699939360743599
O -0.0649826755751286 -8.789857185250757 7.670773500619601
H 0.1375059388220079 -9.290077804707176 8.475599599730561
H 0.7507821549262435 -8.84325025794852 7.150543873046393
O 1.5592880249087715 -11.670762894664303 8.570967183310263
H 1.2483265948021272 -11.584918750632127 9.484696425931627
H 1.6889118057237171 -12.624200287330142 8.456438767561998
O 7.3211219643675935 -8.6525593216275 1.960448355220449
H 7.733992125385903 -9.525645888854886 2.0393497694524774
H 7.730951682239821 -8.134890784537752 2.6696879708343335
O -1.5350373812264735 4.527225760971046 -7.744964368991862
H -1.5424652225993463 4.972126294821384 -8.605763822437453
H -1.5751557774385803 5.254117239125658 -7.105447959842284
O -5.528366583080112 1.2456347244840589 9.152163990486805
H -5.88404491937733 0.8749147576322938 8.330563732352553
H -5.423026247206171 2.1889119848300163 8.95698876651565
C -11.78422774628733 0.4867596442415816 1.6925329514456982
O -12.305137343259519 -0.2613601788706492 0.9167828761322663
O -11.26331814931514 1.2348794673538128 2.4682830267591305