146

C -5.3564454929577465 1.0091607042253532 -0.0734429577464788
C -4.079135492957747 0.16955070422535368 -0.19788295774647868
C -4.333545492957747 -1.2789292957746463 0.3017270422535212
C -3.1403854929577464 -2.1745492957746464 0.7330270422535212
C -2.905235492957746 0.902300704225353 0.41966704225352136
C -2.7423854929577463 1.056130704225354 1.8024770422535212
C -1.8861754929577463 1.3499307042253532 -0.4326129577464788
C -1.5304554929577463 1.5279207042253526 2.3254170422535214
H -3.5237954929577464 0.7301007042253529 2.484817042253521
C -0.6776454929577462 1.8010507042253527 0.08546704225352131
H -1.9759254929577463 1.2426607042253535 -1.5115229577464788
C -0.4680254929577463 1.8513207042253539 1.4698070422535212
H -1.3950654929577464 1.5446707042253527 3.404047042253521
H 0.1461845070422536 1.9972507042253538 -0.6030529577464789
C -1.8679654929577463 -2.0866092957746467 -0.08765295774647863
C -0.6628654929577462 -1.814079295774647 0.5787970422535212
C -1.8438954929577462 -2.213429295774647 -1.4808029577464787
C 0.5129345070422537 -1.5763292957746469 -0.13022295774647863
H -0.6401854929577462 -1.7032692957746463 1.6609470422535213
C -0.6547954929577462 -1.9962392957746466 -2.1933129577464787
H -2.7578654929577464 -2.4351492957746466 -2.026182957746479
C 0.5308845070422537 -1.645769295774647 -1.5261029577464789
H 1.4044045070422537 -1.2610992957746463 0.41551704225352126
H -0.6795654929577464 -2.0467992957746466 -3.2793129577464786
C 1.7843245070422535 -1.2521692957746469 -2.2771629577464787
H 1.4981245070422535 -0.9384492957746469 -3.290282957746479
H 2.241984507042254 -0.38631929577464685 -1.8135029577464787
C 0.9385645070422537 2.0647807042253534 1.9815670422535212
H 1.0508945070422537 1.5807407042253532 2.9609770422535213
H 1.6053245070422537 1.5496207042253536 1.3096170422535214
C 3.9676945070422533 -1.6881692957746468 -3.314052957746479
H 4.795084507042254 -2.398849295774647 -3.4044129577464783
H 3.548404507042253 -1.4816192957746468 -4.303802957746479
H 4.307714507042253 -0.7637192957746466 -2.851282957746479
C 2.344694507042253 -3.565079295774647 -3.101282957746479
H 1.6334345070422536 -4.047909295774646 -2.4251929577464786
H 1.8561845070422536 -3.293109295774647 -4.041792957746479
H 3.1808045070422537 -4.243519295774647 -3.298122957746479
C 3.5156645070422536 -2.648489295774647 -1.1110629577464786
H 3.9311845070422535 -1.748249295774647 -0.6771029577464787
H 2.767184507042254 -3.1044092957746465 -0.45972295774647876
H 4.319224507042254 -3.371819295774647 -1.2863129577464787
C 2.963994507042253 3.381090704225353 2.401027042253521
H 3.3337945070422537 4.369820704225353 2.6912870422535216
H 3.120994507042253 2.671350704225353 3.2183370422535216
H 3.4665445070422534 3.0664207042253535 1.4881370422535212
C 1.2973745070422538 4.282440704225354 0.8488370422535213
H 1.7592145070422538 3.7367207042253527 0.02653704225352116
H 0.23311450704225378 4.4484607042253534 0.6605570422535213
H 1.7921845070422535 5.251370704225354 0.9736770422535213
C 0.7724845070422537 4.194670704225353 3.2772470422535216
H -0.2956954929577462 4.278220704225354 3.057857042253521
H 0.9298945070422537 3.612620704225354 4.190337042253521
H 1.2046345070422537 5.193640704225353 3.3918370422535213
N 2.876084507042253 -2.324759295774647 -2.4576629577464786
N 1.4527845070422536 3.504690704225353 2.1388470422535213
C -3.593905492957746 -3.637819295774647 0.8297870422535213
H -2.8952554929577463 -1.8680692957746468 1.7595270422535212
H -5.022615492957747 -1.2402792957746467 1.1579970422535213
H -4.898275492957747 -1.7933092957746464 -0.48931295774647876
H -3.883675492957746 0.07871070422535364 -1.2758929577464788
H -3.8751654929577466 -4.038529295774646 -0.1505529577464788
H -4.4603554929577465 -3.7321892957746465 1.4932570422535212
H -2.7953554929577464 -4.271929295774647 1.2313670422535212
H -5.648775492957746 1.147700704225353 0.9733970422535213
H -6.189795492957747 0.5254307042253537 -0.5943629577464788
H -5.2178854929577465 2.002970704225354 -0.5139729577464787
C 3.6710445070422537 1.0263707042253536 -0.27764295774647874
O 2.7356545070422538 1.6631507042253526 -0.7327029577464788
O 3.650814507042253 0.3883007042253537 0.7790570422535212
O 4.756604507042254 0.8696707042253538 -0.8334829577464786
O 7.423852799811998 11.015312232400229 3.666300822931987
H 7.1031402533542485 10.706827979878426 4.527084352857282
H 6.927504107773125 10.482547852218225 3.026955817930315
O 4.693685729989934 -8.27512113857684 -7.472747203138805
H 4.895053337520755 -8.666995498874986 -8.335795828233726
H 3.9023507525384664 -8.750767296975233 -7.178618609216462
O -7.966278828833781 5.150865550911157 8.439236322223996
H -8.056060017408784 5.164447838726745 7.474496866963791
H -8.809429032651183 5.506638935642271 8.757803390232665
O 6.829855765409257 4.167578274229338 1.666246299386698
H 6.687665314549488 4.541976263758621 0.7838771147362322
H 7.64728214527191 3.6554146528544513 1.5742436758110643
O -1.060546993536334 11.01530582290127 -6.645382195479298
H -0.09902949663732197 11.13549476115739 -6.647847794377278
H -1.2062084327596265 10.306778056254792 -6.000608519439126
O -8.822139583758673 -3.6125585614547253 -10.41379568324521
H -9.073479795516539 -4.303877913292473 -11.044567439610496
H -8.582710775535906 -4.102420351241538 -9.612751853607978
O 8.355964057388736 -4.214771302098499 6.902937246352461
H 8.25761782190491 -4.263028295113891 5.940146179977584
H 7.639185264550958 -3.6255268526267255 7.182188182259082
O 0.600069042752748 12.434212201620351 -0.34700698593345125
H 0.033594233484056435 11.89880754297468 -0.9226939658665692
H 0.011338848484948816 12.706807900732768 0.37275011718037865
O -2.4550214092472316 -0.26753112021456393 -7.88367115566036
H -2.7130957750360896 -0.30178395054381657 -6.950294638794247
H -3.0722554227821157 0.36938721150001064 -8.273952023192372
O -7.076396450394768 1.0207699866440516 4.222648313522002
H -6.868651381691856 1.2707343329434662 5.135515866296625
H -6.592085705357142 0.19187875975763558 4.090950247735783
O 1.2815903586055737 -0.9236625233509792 -8.438645503578245
H 1.6736894821500958 -0.07326587149572172 -8.189544783529131
H 0.9818998275847415 -1.2987387982723044 -7.596941685179163
O 1.1499587526751833 9.882381667614172 0.8568143812998255
H 0.3585598312556675 9.334198805420598 0.9670443848074459
H 1.874169794229089 9.240528108170604 0.8067712017342838
O 1.9753064552323645 6.267021064260087 -2.643235176858626
H 2.0710252651077834 5.304066736849519 -2.59299346453414
H 1.038699741636639 6.398448652413643 -2.854082508877678
O -2.924803992256128 4.562299528730459 -8.418507907119006
H -1.9938837329827719 4.423993844571273 -8.187799507827414
H -3.4024913181893464 4.346309708085853 -7.603569160757857
O -0.9131731022427494 -2.609423010559772 3.2515718294576703
H -0.06589954304993359 -3.0638662368213327 3.130839783596915
H -0.8330734473593846 -2.1924034716829017 4.122571653672628
O 7.89968548472102 5.865764819284764 0.4167915608574875
H 7.7297124603288925 5.466710987100569 -0.4497143923235067
H 7.238099983819456 6.570596669950797 0.4837141398837236
O 5.308765365837507 -2.6050650444058143 3.127517004926636
H 4.769574331363891 -2.4527681236870875 3.9181155333738293
H 6.211540957495618 -2.4061538919997947 3.41802092719767
O -3.0451869668942195 4.786349870327391 2.0359957022411845
H -3.677510158477356 4.066547006553701 2.1809735474083394
H -2.71663533623687 4.631865652862681 1.1375802099177763
O -0.6215759129547673 7.111593946988937 0.8705946929549135
H -0.3691043627945121 6.469841548781044 1.5513144096181648
H -1.3960419414507963 6.711469125388416 0.4474346261424394
O 6.7028945311244765 6.406188604253371 -1.9892218727652728
H 6.475226633772167 6.088398012305088 -2.8758693929695194
H 6.479311427009659 7.348720720070336 -2.0138338720334734
O -0.706408950955808 -13.041782509122525 3.713330439304294
H -0.6260004726832085 -12.45294089114209 4.478684855542986
H 0.20974707437956752 -13.273480310188686 3.499003094985394
O -5.90552358716266 -13.323274948436648 -3.4695080021381437
H -5.352313151029701 -14.032645578695556 -3.8296730742643343
H -5.549314414505295 -13.177247827084688 -2.5802650379014764
O 4.854251806346444 9.743624420782252 1.9527614317238937
H 4.937918218065939 10.066331879453452 2.862611520786899
H 4.199695543919608 9.03193200425289 2.0161013707229483
O -1.6112987041060678 3.608900505994049 6.681984097435481
H -1.7983457501092008 3.390088925741185 7.607242035433717
H -2.427344913675458 3.372513908738556 6.215988491463278
C -5.638713607188585 4.79030089780497 -7.520780925102901
O -5.135439095217106 4.965543031599119 -6.4489492137586515
O -6.141988119160063 4.61505876401082 -8.592612636447152