146

C -5.3564454929577465 1.0091607042253532 -0.0734429577464788
C -4.079135492957747 0.16955070422535368 -0.19788295774647868
C -4.333545492957747 -1.2789292957746463 0.3017270422535212
C -3.1403854929577464 -2.1745492957746464 0.7330270422535212
C -2.905235492957746 0.902300704225353 0.41966704225352136
C -2.7423854929577463 1.056130704225354 1.8024770422535212
C -1.8861754929577463 1.3499307042253532 -0.4326129577464788
C -1.5304554929577463 1.5279207042253526 2.3254170422535214
H -3.5237954929577464 0.7301007042253529 2.484817042253521
C -0.6776454929577462 1.8010507042253527 0.08546704225352131
H -1.9759254929577463 1.2426607042253535 -1.5115229577464788
C -0.4680254929577463 1.8513207042253539 1.4698070422535212
H -1.3950654929577464 1.5446707042253527 3.404047042253521
H 0.1461845070422536 1.9972507042253538 -0.6030529577464789
C -1.8679654929577463 -2.0866092957746467 -0.08765295774647863
C -0.6628654929577462 -1.814079295774647 0.5787970422535212
C -1.8438954929577462 -2.213429295774647 -1.4808029577464787
C 0.5129345070422537 -1.5763292957746469 -0.13022295774647863
H -0.6401854929577462 -1.7032692957746463 1.6609470422535213
C -0.6547954929577462 -1.9962392957746466 -2.1933129577464787
H -2.7578654929577464 -2.4351492957746466 -2.026182957746479
C 0.5308845070422537 -1.645769295774647 -1.5261029577464789
H 1.4044045070422537 -1.2610992957746463 0.41551704225352126
H -0.6795654929577464 -2.0467992957746466 -3.2793129577464786
C 1.7843245070422535 -1.2521692957746469 -2.2771629577464787
H 1.4981245070422535 -0.9384492957746469 -3.290282957746479
H 2.241984507042254 -0.38631929577464685 -1.8135029577464787
C 0.9385645070422537 2.0647807042253534 1.9815670422535212
H 1.0508945070422537 1.5807407042253532 2.9609770422535213
H 1.6053245070422537 1.5496207042253536 1.3096170422535214
C 3.9676945070422533 -1.6881692957746468 -3.314052957746479
H 4.795084507042254 -2.398849295774647 -3.4044129577464783
H 3.548404507042253 -1.4816192957746468 -4.303802957746479
H 4.307714507042253 -0.7637192957746466 -2.851282957746479
C 2.344694507042253 -3.565079295774647 -3.101282957746479
H 1.6334345070422536 -4.047909295774646 -2.4251929577464786
H 1.8561845070422536 -3.293109295774647 -4.041792957746479
H 3.1808045070422537 -4.243519295774647 -3.298122957746479
C 3.5156645070422536 -2.648489295774647 -1.1110629577464786
H 3.9311845070422535 -1.748249295774647 -0.6771029577464787
H 2.767184507042254 -3.1044092957746465 -0.45972295774647876
H 4.319224507042254 -3.371819295774647 -1.2863129577464787
C 2.963994507042253 3.381090704225353 2.401027042253521
H 3.3337945070422537 4.369820704225353 2.6912870422535216
H 3.120994507042253 2.671350704225353 3.2183370422535216
H 3.4665445070422534 3.0664207042253535 1.4881370422535212
C 1.2973745070422538 4.282440704225354 0.8488370422535213
H 1.7592145070422538 3.7367207042253527 0.02653704225352116
H 0.23311450704225378 4.4484607042253534 0.6605570422535213
H 1.7921845070422535 5.251370704225354 0.9736770422535213
C 0.7724845070422537 4.194670704225353 3.2772470422535216
H -0.2956954929577462 4.278220704225354 3.057857042253521
H 0.9298945070422537 3.612620704225354 4.190337042253521
H 1.2046345070422537 5.193640704225353 3.3918370422535213
N 2.876084507042253 -2.324759295774647 -2.4576629577464786
N 1.4527845070422536 3.504690704225353 2.1388470422535213
C -3.593905492957746 -3.637819295774647 0.8297870422535213
H -2.8952554929577463 -1.8680692957746468 1.7595270422535212
H -5.022615492957747 -1.2402792957746467 1.1579970422535213
H -4.898275492957747 -1.7933092957746464 -0.48931295774647876
H -3.883675492957746 0.07871070422535364 -1.2758929577464788
H -3.8751654929577466 -4.038529295774646 -0.1505529577464788
H -4.4603554929577465 -3.7321892957746465 1.4932570422535212
H -2.7953554929577464 -4.271929295774647 1.2313670422535212
H -5.648775492957746 1.147700704225353 0.9733970422535213
H -6.189795492957747 0.5254307042253537 -0.5943629577464788
H -5.2178854929577465 2.002970704225354 -0.5139729577464787
C 3.6710445070422537 1.0263707042253536 -0.27764295774647874
O 2.7356545070422538 1.6631507042253526 -0.7327029577464788
O 3.650814507042253 0.3883007042253537 0.7790570422535212
O 4.756604507042254 0.8696707042253538 -0.8334829577464786
O -2.8803013824229358 2.2620715656382955 -5.161991613033052
H -3.734461846838827 2.7073699230958077 -5.26728468390893
H -2.3373655491656535 2.6249083402793554 -5.877905085621249
O 0.7362305626062877 -8.461017144531821 4.637988821364944
H 0.5113453039144986 -8.609193584297813 5.568815185420778
H 0.3057450073227191 -7.619608790487449 4.424269115356024
O -4.3136868304400915 3.478695934471757 8.771748623774062
H -4.280105698302691 3.6409121117095493 9.726487109594514
H -4.48147798967433 4.353982534977388 8.391378490669311
O 1.5791301592490714 -3.231464329644675 -9.130821258284262
H 1.9809565790482075 -3.213783934294554 -10.012405224150061
H 2.2757013637170536 -3.594382184867484 -8.563334578470101
O 10.35678641170436 9.547807408505546 -6.284309069081614
H 11.035562651379912 10.181635237365244 -6.007736372101384
H 9.538041284413667 9.901459255358967 -5.905430814156745
O -0.22413958946770873 -4.334315409847915 5.383743961129036
H -0.5461125330954553 -4.541747763987728 6.273840921537113
H -0.8831427556766127 -4.735065997619973 4.797164266946746
O -4.971834376946248 -6.218211809305372 -0.6475116699144325
H -4.934036472581367 -6.2348246343830604 -1.6156349520270787
H -4.271379866308214 -5.597453051220349 -0.39654556246649064
O 7.3612420349543815 4.6398325612388005 2.997795087903196
H 7.283716214122613 3.682452527168393 3.1257817058275252
H 8.297662673823321 4.772729255323499 2.7870421517394437
O -5.712394912696321 -3.0785629288050784 -2.7518577459214466
H -5.802931271307032 -3.002755728551142 -3.7136393183479375
H -5.452999400389701 -4.001850086688022 -2.613233301527169
O -1.2196582139399545 -0.9494217308848236 -8.890811291699077
H -1.6586986703602689 -0.15509531389819498 -9.230305588857995
H -1.9470162133933877 -1.4910929858344089 -8.549483682952815
O 6.88217960694512 4.9402923471757765 -3.866545205753206
H 7.028288555795111 4.01670515598014 -3.6123676453248614
H 7.721803009684198 5.2077620368022535 -4.269601592632222
O -6.171291664806489 10.350743209574716 12.162154114670992
H -5.787072949443472 10.450992902270075 13.046062104667278
H -5.524540443944174 10.77241788811348 11.576607132702563
O 4.867376187828985 3.8602701432923645 -9.321358313300033
H 4.851611462616709 4.298667146684204 -10.185376193760872
H 4.853180100580135 2.915856326960691 -9.537790655912376
O 5.956113816064848 -2.800298624591168 -1.1096678928952115
H 6.083690454383423 -2.5536462502365858 -0.18130688311476018
H 6.462277388523418 -2.135359944663751 -1.6001950931118358
O -1.5222897091699692 -6.047986793543881 6.8235774033742596
H -1.6798249420581781 -6.29450675393449 5.899792841678258
H -1.3929319592506388 -6.896424745831577 7.273445781851419
O -1.1340045633847926 3.263590172792056 9.917659887142381
H -1.1259805347955951 3.320948378174866 10.884930794458663
H -1.3331376102688088 4.1676167298910185 9.63122672216583
O 1.4338434681320995 0.8195506836227637 6.583110618961806
H 2.0503760575368735 0.9153144645248336 7.324517539194673
H 0.8492047385451543 1.588055176889661 6.66410656945041
O 12.825337591085669 0.13253489169984523 7.840490191009841
H 13.107855425611415 0.30257689678925237 8.7516634712261
H 13.210234037361454 0.8646016260001081 7.3356189534896
O -13.986546297283638 -4.589965849685298 9.865037440295103
H -14.494704051692981 -5.413463224968753 9.814095056812217
H -13.133639931935225 -4.863717940708656 10.234594565660714
O 5.720214785954367 3.9952422371264364 -13.332081306180763
H 5.956846179562987 4.893605293448021 -13.60761126733814
H 4.772159005991351 3.933985455875883 -13.522868593832584
O -1.8280087533380078 -9.110491966608272 -7.11012129853583
H -2.048866607138855 -9.398695171924656 -6.211718227659596
H -1.0142564686107995 -8.596564468245456 -6.997659350180912
O 2.186921603380985 7.192815908269248 11.874387536823622
H 2.25804708990794 8.116471725469747 12.158585449233234
H 2.058122495248593 7.252125147897095 10.915818213227741
O 4.9312102827073625 -5.890297367406721 3.934569530511565
H 4.678303052033764 -5.372943457095161 4.71389630475864
H 4.087426436867558 -6.212535208943883 3.5836371448854183
O -8.334922689122005 2.5010677791052007 -5.33199123266978
H -8.847857661338903 1.8019917061194708 -5.764608517756383
H -8.799073933653744 2.647537453564618 -4.494093744331623
C 5.667303357445833 -0.055207637229659046 -7.00738017132526
O 5.823628639860626 -0.24456312896612498 -8.17892836116944
O 5.510978075031041 0.13414785450680644 -5.835831981481079