146

C -5.3564454929577465 1.0091607042253532 -0.0734429577464788
C -4.079135492957747 0.16955070422535368 -0.19788295774647868
C -4.333545492957747 -1.2789292957746463 0.3017270422535212
C -3.1403854929577464 -2.1745492957746464 0.7330270422535212
C -2.905235492957746 0.902300704225353 0.41966704225352136
C -2.7423854929577463 1.056130704225354 1.8024770422535212
C -1.8861754929577463 1.3499307042253532 -0.4326129577464788
C -1.5304554929577463 1.5279207042253526 2.3254170422535214
H -3.5237954929577464 0.7301007042253529 2.484817042253521
C -0.6776454929577462 1.8010507042253527 0.08546704225352131
H -1.9759254929577463 1.2426607042253535 -1.5115229577464788
C -0.4680254929577463 1.8513207042253539 1.4698070422535212
H -1.3950654929577464 1.5446707042253527 3.404047042253521
H 0.1461845070422536 1.9972507042253538 -0.6030529577464789
C -1.8679654929577463 -2.0866092957746467 -0.08765295774647863
C -0.6628654929577462 -1.814079295774647 0.5787970422535212
C -1.8438954929577462 -2.213429295774647 -1.4808029577464787
C 0.5129345070422537 -1.5763292957746469 -0.13022295774647863
H -0.6401854929577462 -1.7032692957746463 1.6609470422535213
C -0.6547954929577462 -1.9962392957746466 -2.1933129577464787
H -2.7578654929577464 -2.4351492957746466 -2.026182957746479
C 0.5308845070422537 -1.645769295774647 -1.5261029577464789
H 1.4044045070422537 -1.2610992957746463 0.41551704225352126
H -0.6795654929577464 -2.0467992957746466 -3.2793129577464786
C 1.7843245070422535 -1.2521692957746469 -2.2771629577464787
H 1.4981245070422535 -0.9384492957746469 -3.290282957746479
H 2.241984507042254 -0.38631929577464685 -1.8135029577464787
C 0.9385645070422537 2.0647807042253534 1.9815670422535212
H 1.0508945070422537 1.5807407042253532 2.9609770422535213
H 1.6053245070422537 1.5496207042253536 1.3096170422535214
C 3.9676945070422533 -1.6881692957746468 -3.314052957746479
H 4.795084507042254 -2.398849295774647 -3.4044129577464783
H 3.548404507042253 -1.4816192957746468 -4.303802957746479
H 4.307714507042253 -0.7637192957746466 -2.851282957746479
C 2.344694507042253 -3.565079295774647 -3.101282957746479
H 1.6334345070422536 -4.047909295774646 -2.4251929577464786
H 1.8561845070422536 -3.293109295774647 -4.041792957746479
H 3.1808045070422537 -4.243519295774647 -3.298122957746479
C 3.5156645070422536 -2.648489295774647 -1.1110629577464786
H 3.9311845070422535 -1.748249295774647 -0.6771029577464787
H 2.767184507042254 -3.1044092957746465 -0.45972295774647876
H 4.319224507042254 -3.371819295774647 -1.2863129577464787
C 2.963994507042253 3.381090704225353 2.401027042253521
H 3.3337945070422537 4.369820704225353 2.6912870422535216
H 3.120994507042253 2.671350704225353 3.2183370422535216
H 3.4665445070422534 3.0664207042253535 1.4881370422535212
C 1.2973745070422538 4.282440704225354 0.8488370422535213
H 1.7592145070422538 3.7367207042253527 0.02653704225352116
H 0.23311450704225378 4.4484607042253534 0.6605570422535213
H 1.7921845070422535 5.251370704225354 0.9736770422535213
C 0.7724845070422537 4.194670704225353 3.2772470422535216
H -0.2956954929577462 4.278220704225354 3.057857042253521
H 0.9298945070422537 3.612620704225354 4.190337042253521
H 1.2046345070422537 5.193640704225353 3.3918370422535213
N 2.876084507042253 -2.324759295774647 -2.4576629577464786
N 1.4527845070422536 3.504690704225353 2.1388470422535213
C -3.593905492957746 -3.637819295774647 0.8297870422535213
H -2.8952554929577463 -1.8680692957746468 1.7595270422535212
H -5.022615492957747 -1.2402792957746467 1.1579970422535213
H -4.898275492957747 -1.7933092957746464 -0.48931295774647876
H -3.883675492957746 0.07871070422535364 -1.2758929577464788
H -3.8751654929577466 -4.038529295774646 -0.1505529577464788
H -4.4603554929577465 -3.7321892957746465 1.4932570422535212
H -2.7953554929577464 -4.271929295774647 1.2313670422535212
H -5.648775492957746 1.147700704225353 0.9733970422535213
H -6.189795492957747 0.5254307042253537 -0.5943629577464788
H -5.2178854929577465 2.002970704225354 -0.5139729577464787
C 3.6710445070422537 1.0263707042253536 -0.27764295774647874
O 2.7356545070422538 1.6631507042253526 -0.7327029577464788
O 3.650814507042253 0.3883007042253537 0.7790570422535212
O 4.756604507042254 0.8696707042253538 -0.8334829577464786
O -4.640817619604724 4.350214635008391 -6.741556545245441
H -4.664805517514386 3.9131070547702524 -5.877074676752969
H -5.54048444352375 4.240473605534958 -7.084366196057028
O -0.21555525898094663 -5.501565604682435 -1.751516515661415
H 0.012509196248148502 -6.419900446990311 -1.5426742819910504
H 0.1869249045388217 -4.991201616557937 -1.0328369890998483
O -10.070158895961335 -7.667988094798831 7.776567924465613
H -10.479815723388361 -7.581238311090786 8.650423241820283
H -9.132803395101533 -7.482946958730245 7.938080732844139
O 4.0526662920207315 -8.528855241620498 -5.713248135165575
H 3.8714153442573553 -8.534488669180973 -6.665132432403847
H 3.2687704939875544 -8.944040070819923 -5.323259827996536
O -0.46800026012423623 -8.726409712438173 -1.452278768164109
H -0.014935979370861663 -8.024794240255625 -0.9609175531710155
H -0.6736591429335478 -8.318418259571635 -2.3068016424100093
O -5.945463257393983 6.364366962139529 7.259259043387789
H -6.289574146241829 6.094107662340356 8.123848520508814
H -4.990403981113925 6.444493883394813 7.402099512378763
O -2.527143389811865 -12.361243353111854 4.805048470472535
H -3.3528989910586535 -11.862610069526983 4.713070797035312
H -1.8357599270440912 -11.690339643709539 4.700937642882621
O 4.073926840179028 2.462940557575848 -3.981968675802033
H 3.362211093183475 2.9300304908486945 -4.4448455996313925
H 4.494223182325532 1.931387312225175 -4.674618714736152
O 11.820550911485627 -1.1272428623985764 -1.048887370333452
H 12.112092044693995 -2.0510916162257766 -1.0271019486136337
H 11.25498634722655 -1.0417769189361759 -0.2667146013990423
O -7.5388699860760955 0.6049417186231318 -2.3445467604679355
H -7.617300934945348 0.6366715336503455 -1.3792441333101058
H -8.412957134297603 0.8800723580479555 -2.659565383510572
O -1.7655076308672606 10.995094135884615 -7.338035413164041
H -2.550434427700245 11.062286760320756 -7.902253838718272
H -1.4816268018299947 11.914223871110142 -7.221527263108481
O 3.5422225272932155 -13.686058282086508 5.34187322024289
H 3.040649288518984 -13.582570566668437 6.16448001319021
H 3.6109460417234263 -12.784043406600532 4.994586325491043
O 4.538478446483859 -9.139445290099928 8.963432014345004
H 4.452716199142928 -9.567314471077971 9.828614167304837
H 3.654629814210945 -8.781848507872427 8.790521399084298
O 2.9727893095601523 -7.610402440718007 -2.302795315627713
H 3.2910681333106258 -8.143228782947808 -3.046947206223998
H 3.7651153455446393 -7.148709562417783 -1.98971212679771
O 1.8638050551508254 -5.545063221428568 -6.5138310629927645
H 1.4421321005157637 -5.954277667398988 -7.2843521940712455
H 1.1356814092781655 -5.4218645275742725 -5.886439652106625
O 0.861721465995537 2.9092486220499385 -6.354362757110646
H 0.8609400107768197 1.9404255722088184 -6.373034776934249
H 0.5856049012462945 3.160805058801052 -7.2484773728619825
O -14.292146430943363 2.1132400863347334 -1.5849678797782545
H -14.678422775347057 2.147149562010245 -0.6969317937358386
H -13.451885405780308 1.6478656534075649 -1.457100796173262
O -15.917711603368318 -2.6147651694198357 4.117795151981067
H -16.57578587887093 -2.080921690280387 4.587812965049889
H -15.104394383581239 -2.091673239933014 4.179858648527523
O -3.9217420990369294 1.5217126380836412 -2.650413669864422
H -3.757514370538376 2.0834237585939093 -1.8780942882694078
H -4.187860102864793 2.1463355972300064 -3.3417813804540257
O -4.619271241320536 -8.30730667466949 5.553977415277291
H -4.370883093680497 -8.204760239434712 4.622980684008814
H -3.9463289724194923 -7.80064330277715 6.032937616764848
O -9.362554601216036 1.1953931415514054 -4.348678334513835
H -8.722320511713022 0.8722550425363454 -5.000329649638097
H -10.00256970892734 1.695276982383514 -4.877316917929978
O -1.473560999109443 2.3745799263056995 -4.098196981375
H -1.1059860196831406 2.0370128570674715 -4.928801860463528
H -1.6425810002500727 3.3111355697875617 -4.2805639470697106
O 2.323762025586034 -2.0096967562769197 12.199640958926182
H 1.9388445550867268 -2.877098286038503 12.00362952055668
H 1.8955527902985785 -1.4149474419143238 11.565707170443698
O -5.302233682086525 -0.0024269930340374835 -9.652407750953127
H -5.2453022925130295 0.13010140969092943 -10.610615659630781
H -6.232693890355677 -0.22740945497091847 -9.502112584868025
C -3.4739805825393284 10.797185424724534 4.2608099005770095
O -2.6121675673331866 10.049655396437199 4.623157028246097
O -4.33579359774547 11.544715453011868 3.898462772907923