146

C -5.3564454929577465 1.0091607042253532 -0.0734429577464788
C -4.079135492957747 0.16955070422535368 -0.19788295774647868
C -4.333545492957747 -1.2789292957746463 0.3017270422535212
C -3.1403854929577464 -2.1745492957746464 0.7330270422535212
C -2.905235492957746 0.902300704225353 0.41966704225352136
C -2.7423854929577463 1.056130704225354 1.8024770422535212
C -1.8861754929577463 1.3499307042253532 -0.4326129577464788
C -1.5304554929577463 1.5279207042253526 2.3254170422535214
H -3.5237954929577464 0.7301007042253529 2.484817042253521
C -0.6776454929577462 1.8010507042253527 0.08546704225352131
H -1.9759254929577463 1.2426607042253535 -1.5115229577464788
C -0.4680254929577463 1.8513207042253539 1.4698070422535212
H -1.3950654929577464 1.5446707042253527 3.404047042253521
H 0.1461845070422536 1.9972507042253538 -0.6030529577464789
C -1.8679654929577463 -2.0866092957746467 -0.08765295774647863
C -0.6628654929577462 -1.814079295774647 0.5787970422535212
C -1.8438954929577462 -2.213429295774647 -1.4808029577464787
C 0.5129345070422537 -1.5763292957746469 -0.13022295774647863
H -0.6401854929577462 -1.7032692957746463 1.6609470422535213
C -0.6547954929577462 -1.9962392957746466 -2.1933129577464787
H -2.7578654929577464 -2.4351492957746466 -2.026182957746479
C 0.5308845070422537 -1.645769295774647 -1.5261029577464789
H 1.4044045070422537 -1.2610992957746463 0.41551704225352126
H -0.6795654929577464 -2.0467992957746466 -3.2793129577464786
C 1.7843245070422535 -1.2521692957746469 -2.2771629577464787
H 1.4981245070422535 -0.9384492957746469 -3.290282957746479
H 2.241984507042254 -0.38631929577464685 -1.8135029577464787
C 0.9385645070422537 2.0647807042253534 1.9815670422535212
H 1.0508945070422537 1.5807407042253532 2.9609770422535213
H 1.6053245070422537 1.5496207042253536 1.3096170422535214
C 3.9676945070422533 -1.6881692957746468 -3.314052957746479
H 4.795084507042254 -2.398849295774647 -3.4044129577464783
H 3.548404507042253 -1.4816192957746468 -4.303802957746479
H 4.307714507042253 -0.7637192957746466 -2.851282957746479
C 2.344694507042253 -3.565079295774647 -3.101282957746479
H 1.6334345070422536 -4.047909295774646 -2.4251929577464786
H 1.8561845070422536 -3.293109295774647 -4.041792957746479
H 3.1808045070422537 -4.243519295774647 -3.298122957746479
C 3.5156645070422536 -2.648489295774647 -1.1110629577464786
H 3.9311845070422535 -1.748249295774647 -0.6771029577464787
H 2.767184507042254 -3.1044092957746465 -0.45972295774647876
H 4.319224507042254 -3.371819295774647 -1.2863129577464787
C 2.963994507042253 3.381090704225353 2.401027042253521
H 3.3337945070422537 4.369820704225353 2.6912870422535216
H 3.120994507042253 2.671350704225353 3.2183370422535216
H 3.4665445070422534 3.0664207042253535 1.4881370422535212
C 1.2973745070422538 4.282440704225354 0.8488370422535213
H 1.7592145070422538 3.7367207042253527 0.02653704225352116
H 0.23311450704225378 4.4484607042253534 0.6605570422535213
H 1.7921845070422535 5.251370704225354 0.9736770422535213
C 0.7724845070422537 4.194670704225353 3.2772470422535216
H -0.2956954929577462 4.278220704225354 3.057857042253521
H 0.9298945070422537 3.612620704225354 4.190337042253521
H 1.2046345070422537 5.193640704225353 3.3918370422535213
N 2.876084507042253 -2.324759295774647 -2.4576629577464786
N 1.4527845070422536 3.504690704225353 2.1388470422535213
C -3.593905492957746 -3.637819295774647 0.8297870422535213
H -2.8952554929577463 -1.8680692957746468 1.7595270422535212
H -5.022615492957747 -1.2402792957746467 1.1579970422535213
H -4.898275492957747 -1.7933092957746464 -0.48931295774647876
H -3.883675492957746 0.07871070422535364 -1.2758929577464788
H -3.8751654929577466 -4.038529295774646 -0.1505529577464788
H -4.4603554929577465 -3.7321892957746465 1.4932570422535212
H -2.7953554929577464 -4.271929295774647 1.2313670422535212
H -5.648775492957746 1.147700704225353 0.9733970422535213
H -6.189795492957747 0.5254307042253537 -0.5943629577464788
H -5.2178854929577465 2.002970704225354 -0.5139729577464787
C 3.6710445070422537 1.0263707042253536 -0.27764295774647874
O 2.7356545070422538 1.6631507042253526 -0.7327029577464788
O 3.650814507042253 0.3883007042253537 0.7790570422535212
O 4.756604507042254 0.8696707042253538 -0.8334829577464786
O -4.835396982083141 5.330272139361279 1.3583141589483074
H -5.217404187531271 5.314805605643908 2.2487065658232095
H -5.588055374984995 5.143094173429764 0.7774254458851773
O 0.041585167369420084 10.54443375745503 -8.13208097540819
H -0.4981978402222085 11.283826632560483 -7.8144336271450126
H -0.03967808754938762 9.878133349394382 -7.433223340465125
O -12.006556848862814 2.920166845998577 2.2660595209120884
H -11.671923702763541 3.242265974586222 3.1164948011038165
H -11.779081981494759 3.626120541528098 1.6424839370538846
O 7.415712903053599 5.081592024607221 5.360922031194127
H 6.968470772784759 5.371971386755729 4.5518351014697505
H 6.7088560726383015 4.67907698079002 5.887512009351777
O 6.782819366272195 -0.5943339575745126 -4.082569097566587
H 6.25083807674099 0.21549093756428328 -4.070448713820325
H 6.891986764839937 -0.8167059105957135 -3.1457686183291518
O 10.490397388204084 6.2714739672415725 -3.2793146513223466
H 10.293791641546004 5.353710771955655 -3.520196893630913
H 9.847942513363089 6.789507318074905 -3.787109024585217
O 3.4766874246842954 4.365909564947611 9.827017305763885
H 3.336280075141444 4.175877046600473 10.766773005435345
H 3.2592132635644253 5.306479420932959 9.743379517911071
O 1.1851333433462832 1.9016957797960352 10.37932372589165
H 1.2235161385569455 2.3481131155136867 9.52013475930597
H 1.7376906377140102 1.1148058831604926 10.259129419396205
O -9.816797441002226 0.6682246144608919 -5.72987195845828
H -9.440750398952304 1.4343828930262523 -6.188737375820788
H -10.490931226696647 0.3365599295206021 -6.341839375931437
O -0.5925372909930022 -8.92183625609897 6.108579498987472
H -1.0741572671078283 -9.006865970610384 6.945107743075658
H -0.3875553281816795 -9.836382417686714 5.862511098848128
O 7.0015376554518785 6.543807573899687 -1.0276980969959508
H 7.003066978386109 6.577356251894237 -1.996119236932591
H 7.04929446970335 7.474213859183807 -0.7611922334650416
O -2.473663215646557 15.871625802921244 3.9032098667358888
H -2.1839763463292168 16.63935239289239 3.3878024961091286
H -3.2100841734809085 15.508583902279815 3.388577283681733
O -2.768768911929347 -2.271514498201407 8.93708535007244
H -2.104483432661011 -1.646682055537092 8.60955431714978
H -3.4013759022207672 -2.344784612230518 8.206741711416916
O -7.285059709559588 -3.297476575605378 2.4418587237352964
H -7.6466578578257165 -4.173245354232349 2.2387745479540877
H -7.5405678609786495 -3.1469248541927692 3.3643616820167934
O -5.3348152203770205 8.724276952184375 -2.110545937792926
H -6.218217746016716 8.68455342496241 -2.506764786383517
H -5.19624710675232 9.668342843623511 -1.9417252790816217
O -6.8626295883023625 0.08033876715195239 -4.197651331258604
H -6.678346556657684 -0.850696306700476 -4.0022522207067635
H -6.126770390415089 0.3499910140684563 -4.767529257588077
O -6.472391135668128 3.450396755355287 14.351005744854906
H -7.212736934269462 3.9645175767077134 14.706723661813353
H -5.701398255139606 4.01917420801988 14.496002751081601
O 4.395952042931966 -1.769867907241469 5.126415581608698
H 3.8668252024387315 -1.1013685751962214 5.586959593213135
H 3.7813479126677034 -2.508192687347753 4.999528913896459
O 7.636746819766623 4.099871365791106 -3.7898358743240452
H 8.546467371305956 4.186937648876605 -4.112008712031773
H 7.6960492927978725 3.419705732771593 -3.1022168863288457
O -0.3448732802677932 -7.372470534863046 -4.879209451592408
H 0.13890688850916133 -7.153057956737346 -5.689630469186581
H -0.039071608816815484 -8.26506112576656 -4.658462267990204
O -5.451079746135214 5.010025160152515 -12.763284146518556
H -5.462740653736024 4.782466830466828 -13.705116714825996
H -6.353891700304667 5.313258666899851 -12.58456100841258
O -5.074463904818779 1.534549042246193 11.00754008441202
H -4.774810229134404 1.3858273812799347 11.916966771456273
H -4.298767468730825 1.3207383510102328 10.467593817035677
O -4.154028096688498 1.686098557949037 -3.3520680652315438
H -4.641183422864771 0.8584426359888893 -3.2231001625487905
H -4.7526700247206355 2.229210488500943 -3.8865016131999948
O -0.6344512364045578 -4.271056553427363 -9.170308819835501
H 0.29674151770399826 -4.464097721478254 -8.98434506252438
H -0.8478794867227564 -3.543933330469829 -8.566403078099293
C -7.86213534497083 -3.378421221944047 -8.417019710298687
O -7.854502640842043 -3.19189753536421 -9.599377064685402
O -7.869768049099619 -3.564944908523884 -7.234662355911974