146

C -5.3564454929577465 1.0091607042253532 -0.0734429577464788
C -4.079135492957747 0.16955070422535368 -0.19788295774647868
C -4.333545492957747 -1.2789292957746463 0.3017270422535212
C -3.1403854929577464 -2.1745492957746464 0.7330270422535212
C -2.905235492957746 0.902300704225353 0.41966704225352136
C -2.7423854929577463 1.056130704225354 1.8024770422535212
C -1.8861754929577463 1.3499307042253532 -0.4326129577464788
C -1.5304554929577463 1.5279207042253526 2.3254170422535214
H -3.5237954929577464 0.7301007042253529 2.484817042253521
C -0.6776454929577462 1.8010507042253527 0.08546704225352131
H -1.9759254929577463 1.2426607042253535 -1.5115229577464788
C -0.4680254929577463 1.8513207042253539 1.4698070422535212
H -1.3950654929577464 1.5446707042253527 3.404047042253521
H 0.1461845070422536 1.9972507042253538 -0.6030529577464789
C -1.8679654929577463 -2.0866092957746467 -0.08765295774647863
C -0.6628654929577462 -1.814079295774647 0.5787970422535212
C -1.8438954929577462 -2.213429295774647 -1.4808029577464787
C 0.5129345070422537 -1.5763292957746469 -0.13022295774647863
H -0.6401854929577462 -1.7032692957746463 1.6609470422535213
C -0.6547954929577462 -1.9962392957746466 -2.1933129577464787
H -2.7578654929577464 -2.4351492957746466 -2.026182957746479
C 0.5308845070422537 -1.645769295774647 -1.5261029577464789
H 1.4044045070422537 -1.2610992957746463 0.41551704225352126
H -0.6795654929577464 -2.0467992957746466 -3.2793129577464786
C 1.7843245070422535 -1.2521692957746469 -2.2771629577464787
H 1.4981245070422535 -0.9384492957746469 -3.290282957746479
H 2.241984507042254 -0.38631929577464685 -1.8135029577464787
C 0.9385645070422537 2.0647807042253534 1.9815670422535212
H 1.0508945070422537 1.5807407042253532 2.9609770422535213
H 1.6053245070422537 1.5496207042253536 1.3096170422535214
C 3.9676945070422533 -1.6881692957746468 -3.314052957746479
H 4.795084507042254 -2.398849295774647 -3.4044129577464783
H 3.548404507042253 -1.4816192957746468 -4.303802957746479
H 4.307714507042253 -0.7637192957746466 -2.851282957746479
C 2.344694507042253 -3.565079295774647 -3.101282957746479
H 1.6334345070422536 -4.047909295774646 -2.4251929577464786
H 1.8561845070422536 -3.293109295774647 -4.041792957746479
H 3.1808045070422537 -4.243519295774647 -3.298122957746479
C 3.5156645070422536 -2.648489295774647 -1.1110629577464786
H 3.9311845070422535 -1.748249295774647 -0.6771029577464787
H 2.767184507042254 -3.1044092957746465 -0.45972295774647876
H 4.319224507042254 -3.371819295774647 -1.2863129577464787
C 2.963994507042253 3.381090704225353 2.401027042253521
H 3.3337945070422537 4.369820704225353 2.6912870422535216
H 3.120994507042253 2.671350704225353 3.2183370422535216
H 3.4665445070422534 3.0664207042253535 1.4881370422535212
C 1.2973745070422538 4.282440704225354 0.8488370422535213
H 1.7592145070422538 3.7367207042253527 0.02653704225352116
H 0.23311450704225378 4.4484607042253534 0.6605570422535213
H 1.7921845070422535 5.251370704225354 0.9736770422535213
C 0.7724845070422537 4.194670704225353 3.2772470422535216
H -0.2956954929577462 4.278220704225354 3.057857042253521
H 0.9298945070422537 3.612620704225354 4.190337042253521
H 1.2046345070422537 5.193640704225353 3.3918370422535213
N 2.876084507042253 -2.324759295774647 -2.4576629577464786
N 1.4527845070422536 3.504690704225353 2.1388470422535213
C -3.593905492957746 -3.637819295774647 0.8297870422535213
H -2.8952554929577463 -1.8680692957746468 1.7595270422535212
H -5.022615492957747 -1.2402792957746467 1.1579970422535213
H -4.898275492957747 -1.7933092957746464 -0.48931295774647876
H -3.883675492957746 0.07871070422535364 -1.2758929577464788
H -3.8751654929577466 -4.038529295774646 -0.1505529577464788
H -4.4603554929577465 -3.7321892957746465 1.4932570422535212
H -2.7953554929577464 -4.271929295774647 1.2313670422535212
H -5.648775492957746 1.147700704225353 0.9733970422535213
H -6.189795492957747 0.5254307042253537 -0.5943629577464788
H -5.2178854929577465 2.002970704225354 -0.5139729577464787
C 3.6710445070422537 1.0263707042253536 -0.27764295774647874
O 2.7356545070422538 1.6631507042253526 -0.7327029577464788
O 3.650814507042253 0.3883007042253537 0.7790570422535212
O 4.756604507042254 0.8696707042253538 -0.8334829577464786
O 0.005249682950643875 -5.591874725535271 6.933478797917116
H -0.1763496957681946 -5.3006383904956085 6.027294258376965
H -0.43882716194023136 -4.930607045053307 7.485278358338985
O -5.3016847103595595 -11.137280908829906 2.2925685232556434
H -5.085335040335136 -12.068855831585612 2.448543971557694
H -5.171347593128769 -10.7188500488675 3.156796384183006
O 2.89590146115083 5.4399504687819045 7.387256977884716
H 2.696731759055245 4.655353326085125 7.919897673231218
H 3.864172318196788 5.463128992889462 7.357655496237985
O 5.303918855992474 -4.9207103113130275 -5.3735862757655175
H 4.497295268793043 -4.444093797718994 -5.126275854547586
H 5.549255387184763 -5.399541648800093 -4.567675312319255
O -3.152120315776572 3.2910418944523046 5.994243806020945
H -3.5134057661899454 4.177537181012715 5.8440230114358345
H -3.155768502074024 3.1971405397419574 6.958676888520866
O 5.570216547589901 2.9060974817109564 6.295353065403972
H 4.8812833435099074 2.2269332524619267 6.23990627176677
H 5.395386697414856 3.4795378135297503 5.5340629409236115
O -6.387015143377648 -1.3858143687638558 4.756309874193691
H -6.3529891305189405 -1.2871197502869913 3.7929465161440663
H -6.457779555733524 -0.47609198607310654 5.082437960496287
O -0.4619884505340148 -8.887822728233845 8.60982450277249
H -1.3444573482523672 -9.220721071547285 8.832073674827024
H -0.6301132449319633 -8.008677158374763 8.238611538551416
O -6.3062007327257295 -6.220801487400847 -6.406327964946509
H -5.653410289572979 -6.0921503481738215 -7.110800021598882
H -5.772971329844016 -6.464229413276445 -5.6347249626802425
O -10.610033600506439 -3.6061439412110268 6.1833290464507895
H -11.428397585016691 -3.5609173203994313 6.700245189095293
H -10.124931264968385 -4.346671117809602 6.577355909842697
O -3.5094314428554445 1.0212272695524556 -13.118334369269792
H -3.7689838079144264 0.5887985099333033 -13.945743152487939
H -3.9690345305590458 0.5120126283082866 -12.433916810161403
O -6.601078767752156 -6.071714874845244 0.945264792960168
H -6.618751483121714 -6.032694599231114 1.9133208089646476
H -7.027380006208199 -5.246235911573635 0.6699219528737188
O 1.416856345233483 -7.457474765812674 -7.777714345155309
H 2.3697464875070513 -7.286742991127598 -7.735071704867162
H 1.0482635149130481 -6.638066447706185 -8.140579716821263
O 5.499299833327418 -6.1916438500910385 -10.61708831632475
H 5.2803666446420285 -6.278151649470246 -11.557062792807285
H 4.646220634618871 -6.2896914137028865 -10.168084418456855
O -0.3133134497758996 3.2529590659328833 7.0366324300221645
H -1.1112379411706996 2.961647271508789 7.502917001246395
H -0.6079248307420866 3.3735458190433483 6.121413924156231
O -8.348908954520544 9.960483421326048 -0.4534735535561407
H -7.989363848330122 10.23424858513823 0.4037004711304495
H -7.92109488746559 9.108186581990914 -0.6253082589833081
O 7.357286539203819 -4.03916051219 -0.12069892563969287
H 8.20113614001856 -4.396039638304836 0.19477293910947013
H 6.713344951707642 -4.34684808911058 0.5347623861107751
O 0.1377641361909112 -9.563431077097459 2.905619349471676
H 0.1448936008535644 -9.612599052693044 3.8733481533260705
H 0.2171860399691452 -10.487117620843827 2.6237376820966483
O 12.753294069169822 -6.2003487577966725 1.802045707698146
H 12.897425835604917 -6.465875700011134 2.72274589438355
H 11.914830623949008 -5.715245845120082 1.8268682668154121
O -6.190173888143721 -0.12370244930563867 9.507528347643303
H -5.907201430943005 0.6087389438344744 8.939704826660982
H -6.004576795320213 -0.9145753072692946 8.979289967769347
O 1.1712938702052254 6.220919626462711 -9.244867753441934
H 1.4993148988229832 6.044792307215061 -10.139489868694616
H 1.9619492675913373 6.155275877282219 -8.688525336330189
O -4.003271548561161 -1.5184994705010606 10.736413632542408
H -4.334180880491683 -2.1032249811881187 11.434670353307098
H -4.795442871359349 -1.057011166874648 10.422638099314936
O -1.1735324269361143 -4.406157070035714 -5.365894053735641
H -1.6061567620031525 -4.679932961356966 -4.543184929598162
H -1.708114327895227 -4.819674098854432 -6.060291492054562
O 1.3318843351512908 -4.197106516089557 1.2003953343263825
H 1.5297994107716382 -4.355646230199133 2.1356290691714466
H 1.147854844492525 -5.080435509903814 0.8470895467216969
C -6.370609249032125 6.00625324268362 -1.7889367489679333
O -5.424227680457022 6.727619242788535 -1.9185950609034437
O -7.316990817607226 5.284887242578705 -1.659278437032423