146

C -5.3564454929577465 1.0091607042253532 -0.0734429577464788
C -4.079135492957747 0.16955070422535368 -0.19788295774647868
C -4.333545492957747 -1.2789292957746463 0.3017270422535212
C -3.1403854929577464 -2.1745492957746464 0.7330270422535212
C -2.905235492957746 0.902300704225353 0.41966704225352136
C -2.7423854929577463 1.056130704225354 1.8024770422535212
C -1.8861754929577463 1.3499307042253532 -0.4326129577464788
C -1.5304554929577463 1.5279207042253526 2.3254170422535214
H -3.5237954929577464 0.7301007042253529 2.484817042253521
C -0.6776454929577462 1.8010507042253527 0.08546704225352131
H -1.9759254929577463 1.2426607042253535 -1.5115229577464788
C -0.4680254929577463 1.8513207042253539 1.4698070422535212
H -1.3950654929577464 1.5446707042253527 3.404047042253521
H 0.1461845070422536 1.9972507042253538 -0.6030529577464789
C -1.8679654929577463 -2.0866092957746467 -0.08765295774647863
C -0.6628654929577462 -1.814079295774647 0.5787970422535212
C -1.8438954929577462 -2.213429295774647 -1.4808029577464787
C 0.5129345070422537 -1.5763292957746469 -0.13022295774647863
H -0.6401854929577462 -1.7032692957746463 1.6609470422535213
C -0.6547954929577462 -1.9962392957746466 -2.1933129577464787
H -2.7578654929577464 -2.4351492957746466 -2.026182957746479
C 0.5308845070422537 -1.645769295774647 -1.5261029577464789
H 1.4044045070422537 -1.2610992957746463 0.41551704225352126
H -0.6795654929577464 -2.0467992957746466 -3.2793129577464786
C 1.7843245070422535 -1.2521692957746469 -2.2771629577464787
H 1.4981245070422535 -0.9384492957746469 -3.290282957746479
H 2.241984507042254 -0.38631929577464685 -1.8135029577464787
C 0.9385645070422537 2.0647807042253534 1.9815670422535212
H 1.0508945070422537 1.5807407042253532 2.9609770422535213
H 1.6053245070422537 1.5496207042253536 1.3096170422535214
C 3.9676945070422533 -1.6881692957746468 -3.314052957746479
H 4.795084507042254 -2.398849295774647 -3.4044129577464783
H 3.548404507042253 -1.4816192957746468 -4.303802957746479
H 4.307714507042253 -0.7637192957746466 -2.851282957746479
C 2.344694507042253 -3.565079295774647 -3.101282957746479
H 1.6334345070422536 -4.047909295774646 -2.4251929577464786
H 1.8561845070422536 -3.293109295774647 -4.041792957746479
H 3.1808045070422537 -4.243519295774647 -3.298122957746479
C 3.5156645070422536 -2.648489295774647 -1.1110629577464786
H 3.9311845070422535 -1.748249295774647 -0.6771029577464787
H 2.767184507042254 -3.1044092957746465 -0.45972295774647876
H 4.319224507042254 -3.371819295774647 -1.2863129577464787
C 2.963994507042253 3.381090704225353 2.401027042253521
H 3.3337945070422537 4.369820704225353 2.6912870422535216
H 3.120994507042253 2.671350704225353 3.2183370422535216
H 3.4665445070422534 3.0664207042253535 1.4881370422535212
C 1.2973745070422538 4.282440704225354 0.8488370422535213
H 1.7592145070422538 3.7367207042253527 0.02653704225352116
H 0.23311450704225378 4.4484607042253534 0.6605570422535213
H 1.7921845070422535 5.251370704225354 0.9736770422535213
C 0.7724845070422537 4.194670704225353 3.2772470422535216
H -0.2956954929577462 4.278220704225354 3.057857042253521
H 0.9298945070422537 3.612620704225354 4.190337042253521
H 1.2046345070422537 5.193640704225353 3.3918370422535213
N 2.876084507042253 -2.324759295774647 -2.4576629577464786
N 1.4527845070422536 3.504690704225353 2.1388470422535213
C -3.593905492957746 -3.637819295774647 0.8297870422535213
H -2.8952554929577463 -1.8680692957746468 1.7595270422535212
H -5.022615492957747 -1.2402792957746467 1.1579970422535213
H -4.898275492957747 -1.7933092957746464 -0.48931295774647876
H -3.883675492957746 0.07871070422535364 -1.2758929577464788
H -3.8751654929577466 -4.038529295774646 -0.1505529577464788
H -4.4603554929577465 -3.7321892957746465 1.4932570422535212
H -2.7953554929577464 -4.271929295774647 1.2313670422535212
H -5.648775492957746 1.147700704225353 0.9733970422535213
H -6.189795492957747 0.5254307042253537 -0.5943629577464788
H -5.2178854929577465 2.002970704225354 -0.5139729577464787
C 3.6710445070422537 1.0263707042253536 -0.27764295774647874
O 2.7356545070422538 1.6631507042253526 -0.7327029577464788
O 3.650814507042253 0.3883007042253537 0.7790570422535212
O 4.756604507042254 0.8696707042253538 -0.8334829577464786
O 2.427818305680952 -7.6469648773146695 -4.4694031197875415
H 2.6157262035179354 -7.962850442583722 -3.572812751511629
H 3.1712790163967717 -7.059123273915455 -4.671072069392996
O 9.154536877100277 3.831300098119163 1.8334283817329822
H 9.428163802750245 3.051924624153682 2.3400540157473197
H 8.198626028616765 3.7158711215072433 1.7244671711584991
O -2.0884456613615248 9.612320813052163 4.521669042086265
H -2.453676930306278 9.497135748929047 5.41178469641887
H -2.8139907646233215 9.350283968117976 3.9352537120259363
O 3.0141131956514378 -1.8778288956831728 7.202582479976698
H 2.852199181654182 -2.318827270728072 6.355073399093752
H 3.974857195950425 -1.933750035338951 7.315744913359418
O 6.618174827878236 -5.138707532412093 11.009051711250967
H 7.17446049218178 -5.041536807985498 10.221605543627568
H 5.716543749941627 -5.018786146072468 10.674922687223946
O -9.882654953399445 6.1066743855183265 -3.8928345843426966
H -10.433889112220815 5.712478333770218 -3.2002180007737655
H -9.047740444617176 5.618431405358409 -3.8336864681476035
O -2.9292338679647716 -13.052523304620285 8.717741175189571
H -2.507546514610279 -13.386687480303095 9.523645286490112
H -2.199522240540425 -12.654894966342159 8.219369236071923
O -15.197267292477601 1.1376152612043224 -2.7242249820399067
H -16.02496458360561 1.183206189055296 -2.222422213557062
H -14.72626670014328 0.38753376027123443 -2.3311624828382103
O -1.398811761161773 -8.50978805398061 6.019247171803347
H -1.382673295084233 -8.292299970242668 5.075104258762814
H -1.0067518528425285 -9.394886295186794 6.062282924410082
O 11.84937600341376 -4.747950769616648 -0.3004659170592556
H 12.20980832416213 -5.647401418206304 -0.3071314861714014
H 11.533779233457372 -4.628993018532858 0.6079446049792021
O 7.350331719189186 1.8039481433588782 -8.288154743199799
H 7.6692221755713295 0.8971180855038391 -8.410365544273255
H 7.745218462890675 2.079596827602919 -7.447295535708221
O 3.7836882937735603 -5.864249609003279 7.237344219931198
H 3.683670932873006 -6.575629821581431 7.887653436820173
H 3.3265530328980333 -6.199546079487518 6.451490814743515
O -3.19076863560991 -3.87679714297113 3.838515417969679
H -3.3757616503190686 -3.2181906026777694 4.524796968422281
H -2.3029612243077735 -3.646245459177529 3.526096043031225
O -9.749520157498031 -4.571623124002886 -2.7204909011838456
H -10.167375908605235 -5.172540347584624 -2.08546143842684
H -9.799913602922402 -5.048800604659877 -3.5623484288642167
O 4.848612084585481 5.262567116947112 4.715699948076522
H 5.135203786434038 4.344588822438983 4.834647012535868
H 4.36733165963509 5.465147714057128 5.531967182831244
O 1.652349540964661 10.170707224349497 -0.3750743610665532
H 1.7169621764241612 9.743306118053484 0.4921746565609805
H 2.32977546745637 10.862953880544854 -0.34590887798813674
O -5.8906847095156385 1.8018027265790844 10.901865912166235
H -5.601210335537235 1.862049185996498 11.824656412679477
H -5.61931626739119 0.912490392282469 10.629020378966853
O 7.6821884153840285 -2.3192006352067533 13.074003002439479
H 8.639748583441442 -2.2783810913449845 13.216760300987671
H 7.59467364058942 -2.5254362949135607 12.131257033920946
O -1.7594247704787906 -7.178525829056884 -7.528110992907322
H -1.7474643884594023 -7.618108622901864 -8.391587265608196
H -0.9580670988850504 -7.501930494468914 -7.089707926235118
O 0.4728934498847388 5.709877970180605 5.254056480109515
H 0.22723000730117526 5.507208116430408 6.169229556778003
H -0.05238144967412328 5.088632346937212 4.727651598108641
O -9.534125987609594 -2.251871989378837 11.387671807107337
H -9.626047443728023 -2.740718550560418 12.219264761879087
H -9.621168664747794 -2.933600639573683 10.704567448930543
O -6.3758769529072685 2.465218795376229 5.150710320351275
H -6.208952870472293 2.7585273834073614 4.242374600592096
H -6.666441427536435 1.5462811408060375 5.050272193145965
O -0.33673804504060545 4.8473262356001285 -8.654226930005471
H -0.22919627027494704 4.957792976598753 -7.697566476807266
H 0.5696018580751911 4.872510057620509 -8.996097811228912
O 7.91194621677925 -7.399878161498428 3.5283929682591872
H 7.956638845707021 -6.503903397066251 3.1620609503843777
H 8.561366535035352 -7.897641901977072 3.009310649931111
C 16.03394710026168 3.3774003579976988 2.0729835966441286
O 15.264036396900691 3.8895828899147595 1.3129014825609098
O 16.80385780362267 2.865217826080638 2.8330657107273476