146

C -5.3564454929577465 1.0091607042253532 -0.0734429577464788
C -4.079135492957747 0.16955070422535368 -0.19788295774647868
C -4.333545492957747 -1.2789292957746463 0.3017270422535212
C -3.1403854929577464 -2.1745492957746464 0.7330270422535212
C -2.905235492957746 0.902300704225353 0.41966704225352136
C -2.7423854929577463 1.056130704225354 1.8024770422535212
C -1.8861754929577463 1.3499307042253532 -0.4326129577464788
C -1.5304554929577463 1.5279207042253526 2.3254170422535214
H -3.5237954929577464 0.7301007042253529 2.484817042253521
C -0.6776454929577462 1.8010507042253527 0.08546704225352131
H -1.9759254929577463 1.2426607042253535 -1.5115229577464788
C -0.4680254929577463 1.8513207042253539 1.4698070422535212
H -1.3950654929577464 1.5446707042253527 3.404047042253521
H 0.1461845070422536 1.9972507042253538 -0.6030529577464789
C -1.8679654929577463 -2.0866092957746467 -0.08765295774647863
C -0.6628654929577462 -1.814079295774647 0.5787970422535212
C -1.8438954929577462 -2.213429295774647 -1.4808029577464787
C 0.5129345070422537 -1.5763292957746469 -0.13022295774647863
H -0.6401854929577462 -1.7032692957746463 1.6609470422535213
C -0.6547954929577462 -1.9962392957746466 -2.1933129577464787
H -2.7578654929577464 -2.4351492957746466 -2.026182957746479
C 0.5308845070422537 -1.645769295774647 -1.5261029577464789
H 1.4044045070422537 -1.2610992957746463 0.41551704225352126
H -0.6795654929577464 -2.0467992957746466 -3.2793129577464786
C 1.7843245070422535 -1.2521692957746469 -2.2771629577464787
H 1.4981245070422535 -0.9384492957746469 -3.290282957746479
H 2.241984507042254 -0.38631929577464685 -1.8135029577464787
C 0.9385645070422537 2.0647807042253534 1.9815670422535212
H 1.0508945070422537 1.5807407042253532 2.9609770422535213
H 1.6053245070422537 1.5496207042253536 1.3096170422535214
C 3.9676945070422533 -1.6881692957746468 -3.314052957746479
H 4.795084507042254 -2.398849295774647 -3.4044129577464783
H 3.548404507042253 -1.4816192957746468 -4.303802957746479
H 4.307714507042253 -0.7637192957746466 -2.851282957746479
C 2.344694507042253 -3.565079295774647 -3.101282957746479
H 1.6334345070422536 -4.047909295774646 -2.4251929577464786
H 1.8561845070422536 -3.293109295774647 -4.041792957746479
H 3.1808045070422537 -4.243519295774647 -3.298122957746479
C 3.5156645070422536 -2.648489295774647 -1.1110629577464786
H 3.9311845070422535 -1.748249295774647 -0.6771029577464787
H 2.767184507042254 -3.1044092957746465 -0.45972295774647876
H 4.319224507042254 -3.371819295774647 -1.2863129577464787
C 2.963994507042253 3.381090704225353 2.401027042253521
H 3.3337945070422537 4.369820704225353 2.6912870422535216
H 3.120994507042253 2.671350704225353 3.2183370422535216
H 3.4665445070422534 3.0664207042253535 1.4881370422535212
C 1.2973745070422538 4.282440704225354 0.8488370422535213
H 1.7592145070422538 3.7367207042253527 0.02653704225352116
H 0.23311450704225378 4.4484607042253534 0.6605570422535213
H 1.7921845070422535 5.251370704225354 0.9736770422535213
C 0.7724845070422537 4.194670704225353 3.2772470422535216
H -0.2956954929577462 4.278220704225354 3.057857042253521
H 0.9298945070422537 3.612620704225354 4.190337042253521
H 1.2046345070422537 5.193640704225353 3.3918370422535213
N 2.876084507042253 -2.324759295774647 -2.4576629577464786
N 1.4527845070422536 3.504690704225353 2.1388470422535213
C -3.593905492957746 -3.637819295774647 0.8297870422535213
H -2.8952554929577463 -1.8680692957746468 1.7595270422535212
H -5.022615492957747 -1.2402792957746467 1.1579970422535213
H -4.898275492957747 -1.7933092957746464 -0.48931295774647876
H -3.883675492957746 0.07871070422535364 -1.2758929577464788
H -3.8751654929577466 -4.038529295774646 -0.1505529577464788
H -4.4603554929577465 -3.7321892957746465 1.4932570422535212
H -2.7953554929577464 -4.271929295774647 1.2313670422535212
H -5.648775492957746 1.147700704225353 0.9733970422535213
H -6.189795492957747 0.5254307042253537 -0.5943629577464788
H -5.2178854929577465 2.002970704225354 -0.5139729577464787
C 3.6710445070422537 1.0263707042253536 -0.27764295774647874
O 2.7356545070422538 1.6631507042253526 -0.7327029577464788
O 3.650814507042253 0.3883007042253537 0.7790570422535212
O 4.756604507042254 0.8696707042253538 -0.8334829577464786
O 4.815298315309533 -2.1319924116376145 8.072957262120498
H 5.181533923071366 -2.821601851759866 8.646784463115358
H 5.5284121934086805 -1.4792404882760484 8.007037100484096
O 6.3827134165398505 -3.0859926089492506 5.440598525281247
H 6.0099670949097925 -2.2467496512840506 5.131246307541291
H 6.5413683230851944 -2.9376788488545404 6.384946762689278
O -1.3168308772776776 -1.1846762041776162 3.8553598888673206
H -0.5465630172393147 -1.7387848404974213 3.6588442410228597
H -0.9552933283357583 -0.28647608382460144 3.8939486022806866
O 5.363826933931596 -2.5918037844738655 10.412255918395227
H 4.754152839341852 -2.0295302455815136 10.913368004407578
H 5.887475519393803 -3.036448012961272 11.095663273723122
O 7.020665514196498 0.02880270604125834 0.09497296899633745
H 7.329717113381252 0.6423638744774678 -0.5883989345295104
H 7.644691204081427 0.15788306950969044 0.8249675870795772
O -9.245751206107569 -4.793192596524284 -7.429347625597531
H -9.672378484539074 -3.940351663795421 -7.25724630177842
H -9.789136074589404 -5.190270942950811 -8.126501565415811
O 2.817097315093858 7.979811034658071 -4.762130696469466
H 3.5116923746157456 8.637743219814572 -4.915852197642792
H 2.132641050799635 8.206426545663406 -5.409530863862238
O -1.3331344621776875 -7.625201847087656 4.16909932923786
H -1.5355758465751346 -7.95657035232823 3.2813044449780584
H -2.194448910918046 -7.602439381305524 4.612474153559912
O -8.580656501354799 4.485612167489964 1.6637012699977771
H -8.45918899166018 5.443610007017752 1.5833698287765485
H -9.34620389373495 4.298649375684474 1.0998359945992586
O 4.720640373738569 5.464373424857283 -9.632806743910539
H 5.174679548200423 5.864541481495734 -10.389563845892544
H 4.087643774151521 6.143017920846095 -9.354025651877162
O 8.612333983293006 -8.849064396815768 -0.4140889645380872
H 7.820549098250073 -9.054124365903197 0.10552094856539629
H 8.263412741959012 -8.591516987063255 -1.2806253130980956
O -11.082025888702791 -5.4116148571294715 2.5005937510441094
H -11.515534050507028 -5.1442090086406465 1.6762563548627376
H -10.202027172693711 -5.010027707952512 2.443218096465768
O -4.302869373056636 7.367402089095045 0.9555447950694582
H -4.066123519759367 7.066490642963694 1.8456970626246716
H -3.883800776205385 6.718892084821429 0.37007214003751
O -10.919639767152535 5.316850592664237 -1.6398829568192026
H -10.751307422659272 5.93336989473849 -2.3682616556203673
H -10.83154309499163 4.442509998677977 -2.0482081291536125
O 1.2802986138519707 -0.8645586018346236 -5.2534215499893575
H 2.1803522204914056 -0.8340393720231998 -5.611107779367934
H 0.7454108713344059 -0.418662694840461 -5.9272419172463255
O -3.8988314447855315 -7.212060696599131 -5.021596891741085
H -3.2665576561815737 -7.552973169673774 -5.671962864748999
H -4.7337232231569715 -7.6430320320561345 -5.25862298887425
O -3.0669703597573443 3.1807199823748773 0.9561077096794607
H -3.0253682487999916 2.8159720483433412 0.05933819309026489
H -2.1379506278090123 3.259507682723998 1.2200713060793178
O 8.975611435035997 3.9157569353951702 7.955433396447077
H 8.74620113697023 4.193067041496598 7.055746019023457
H 8.121478480493943 3.867798494840908 8.410536492728415
O 8.683184605751809 5.0568096324408645 -9.690790027846772
H 8.65875973408499 4.961656460742352 -10.654800741718654
H 8.135628527238097 5.837535080046261 -9.518708475540771
O -4.320250896640916 -2.8861255006360143 7.040315431579734
H -3.6451548201025625 -2.4949031309086918 7.614908941608746
H -4.071675372383835 -3.8213646657357994 6.990316860562412
O -2.2027356591757608 -3.335185192486756 10.597211640970167
H -1.654059616104563 -2.7188407958800545 11.105189535598717
H -1.8370900436070547 -4.206287855768176 10.812723538876984
O 2.4527708804250565 -0.847470163433707 10.929447956353355
H 2.6171577101232053 -1.0957712276202263 11.851560155950366
H 2.1739314704052974 0.07901637866388089 10.982675909835397
O 1.6120994863671956 9.848649148234264 -7.655349181037193
H 1.9690756987223654 10.642798446372574 -8.080628187077918
H 0.7657460179548612 10.141591118635027 -7.285440066815699
O -7.9097212691819205 -7.817376444801569 0.7182822177479538
H -8.282322045246099 -7.467339697989383 1.541453095790609
H -8.261142223024734 -7.2288031951872185 0.03341231233626729
C 2.288928556018606 -8.289180294436976 0.8307011514083378
O 1.1379384238906138 -8.36585747487611 1.150326843498151
O 3.439918688146598 -8.212503113997842 0.5110754593185249