146

C -5.3564454929577465 1.0091607042253532 -0.0734429577464788
C -4.079135492957747 0.16955070422535368 -0.19788295774647868
C -4.333545492957747 -1.2789292957746463 0.3017270422535212
C -3.1403854929577464 -2.1745492957746464 0.7330270422535212
C -2.905235492957746 0.902300704225353 0.41966704225352136
C -2.7423854929577463 1.056130704225354 1.8024770422535212
C -1.8861754929577463 1.3499307042253532 -0.4326129577464788
C -1.5304554929577463 1.5279207042253526 2.3254170422535214
H -3.5237954929577464 0.7301007042253529 2.484817042253521
C -0.6776454929577462 1.8010507042253527 0.08546704225352131
H -1.9759254929577463 1.2426607042253535 -1.5115229577464788
C -0.4680254929577463 1.8513207042253539 1.4698070422535212
H -1.3950654929577464 1.5446707042253527 3.404047042253521
H 0.1461845070422536 1.9972507042253538 -0.6030529577464789
C -1.8679654929577463 -2.0866092957746467 -0.08765295774647863
C -0.6628654929577462 -1.814079295774647 0.5787970422535212
C -1.8438954929577462 -2.213429295774647 -1.4808029577464787
C 0.5129345070422537 -1.5763292957746469 -0.13022295774647863
H -0.6401854929577462 -1.7032692957746463 1.6609470422535213
C -0.6547954929577462 -1.9962392957746466 -2.1933129577464787
H -2.7578654929577464 -2.4351492957746466 -2.026182957746479
C 0.5308845070422537 -1.645769295774647 -1.5261029577464789
H 1.4044045070422537 -1.2610992957746463 0.41551704225352126
H -0.6795654929577464 -2.0467992957746466 -3.2793129577464786
C 1.7843245070422535 -1.2521692957746469 -2.2771629577464787
H 1.4981245070422535 -0.9384492957746469 -3.290282957746479
H 2.241984507042254 -0.38631929577464685 -1.8135029577464787
C 0.9385645070422537 2.0647807042253534 1.9815670422535212
H 1.0508945070422537 1.5807407042253532 2.9609770422535213
H 1.6053245070422537 1.5496207042253536 1.3096170422535214
C 3.9676945070422533 -1.6881692957746468 -3.314052957746479
H 4.795084507042254 -2.398849295774647 -3.4044129577464783
H 3.548404507042253 -1.4816192957746468 -4.303802957746479
H 4.307714507042253 -0.7637192957746466 -2.851282957746479
C 2.344694507042253 -3.565079295774647 -3.101282957746479
H 1.6334345070422536 -4.047909295774646 -2.4251929577464786
H 1.8561845070422536 -3.293109295774647 -4.041792957746479
H 3.1808045070422537 -4.243519295774647 -3.298122957746479
C 3.5156645070422536 -2.648489295774647 -1.1110629577464786
H 3.9311845070422535 -1.748249295774647 -0.6771029577464787
H 2.767184507042254 -3.1044092957746465 -0.45972295774647876
H 4.319224507042254 -3.371819295774647 -1.2863129577464787
C 2.963994507042253 3.381090704225353 2.401027042253521
H 3.3337945070422537 4.369820704225353 2.6912870422535216
H 3.120994507042253 2.671350704225353 3.2183370422535216
H 3.4665445070422534 3.0664207042253535 1.4881370422535212
C 1.2973745070422538 4.282440704225354 0.8488370422535213
H 1.7592145070422538 3.7367207042253527 0.02653704225352116
H 0.23311450704225378 4.4484607042253534 0.6605570422535213
H 1.7921845070422535 5.251370704225354 0.9736770422535213
C 0.7724845070422537 4.194670704225353 3.2772470422535216
H -0.2956954929577462 4.278220704225354 3.057857042253521
H 0.9298945070422537 3.612620704225354 4.190337042253521
H 1.2046345070422537 5.193640704225353 3.3918370422535213
N 2.876084507042253 -2.324759295774647 -2.4576629577464786
N 1.4527845070422536 3.504690704225353 2.1388470422535213
C -3.593905492957746 -3.637819295774647 0.8297870422535213
H -2.8952554929577463 -1.8680692957746468 1.7595270422535212
H -5.022615492957747 -1.2402792957746467 1.1579970422535213
H -4.898275492957747 -1.7933092957746464 -0.48931295774647876
H -3.883675492957746 0.07871070422535364 -1.2758929577464788
H -3.8751654929577466 -4.038529295774646 -0.1505529577464788
H -4.4603554929577465 -3.7321892957746465 1.4932570422535212
H -2.7953554929577464 -4.271929295774647 1.2313670422535212
H -5.648775492957746 1.147700704225353 0.9733970422535213
H -6.189795492957747 0.5254307042253537 -0.5943629577464788
H -5.2178854929577465 2.002970704225354 -0.5139729577464787
C 3.6710445070422537 1.0263707042253536 -0.27764295774647874
O 2.7356545070422538 1.6631507042253526 -0.7327029577464788
O 3.650814507042253 0.3883007042253537 0.7790570422535212
O 4.756604507042254 0.8696707042253538 -0.8334829577464786
O -3.890758163178899 -1.195080269454877 8.569880590070424
H -4.42481560142032 -1.971970412459295 8.793915666033064
H -4.527629855576743 -0.4647703981225342 8.57185126428095
O 6.940924612907285 1.268408328378835 2.6943653906893594
H 7.10589762461305 0.49562770047555316 2.133507687304499
H 6.152532339775536 1.67592388173327 2.3053529979042713
O 0.09289734224217627 -5.310230003690232 12.969477287641766
H 0.1050048332596516 -5.010467375510186 13.890869241322637
H 0.8514142214125237 -4.861013191474344 12.567210779047933
O -11.140924002044663 9.096877186929932 1.3182660756599163
H -11.423939112872066 9.074244880219476 2.244741969915302
H -10.577195877124959 8.314087233260919 1.2265467543073407
O -3.2626001122258472 7.948000982002565 4.0571858145036295
H -2.9741458157642104 8.184528365363509 3.16286133609926
H -2.864066815297858 8.62914773019521 4.619477787562369
O 8.591883646586737 4.815679075356886 0.40408128064241033
H 8.672286527506191 5.609428944328885 0.9540484425228151
H 8.193898787937725 5.139742498522136 -0.4178389675280223
O 0.9291345754598903 11.065479319261067 1.5007969103911003
H 0.01516081804518521 10.765161247333033 1.384916008898775
H 1.3625811044931777 10.326717264334098 1.9539157435563896
O 6.3355817544464434 3.259652501181458 7.420438959244076
H 6.331589671543743 3.278274483867768 6.451622855984572
H 5.397079691957636 3.2155042093605815 7.6575607661989675
O -2.3699362548470857 7.971366444153862 -7.051840875855219
H -2.319370608562035 7.967829646181236 -6.084164295909276
H -1.4453128961408552 7.9082261321868135 -7.334766466496136
O 2.747900809193824 -14.734103851125061 2.210776694628143
H 3.486919208336076 -15.31767268300278 2.439395550128083
H 3.175535098760217 -13.899524596733153 1.9667104601226475
O 0.08258837185448986 -4.808731410821356 8.61211424227965
H 0.954674704846238 -4.948853819853141 8.213618953479225
H 0.28155517603827573 -4.527665763841684 9.517860485562387
O 7.1173838477428575 0.4013126275237415 -2.7356330130355735
H 7.02825747473296 0.3599305357483209 -3.699640984483109
H 7.3748054362792335 1.319513577410734 -2.5635775403471612
O 0.717761639464661 -3.141488833451866 3.360599258003039
H 0.9010481144595469 -2.3094936056623308 2.8989095722622924
H 0.27798277763575996 -3.6881147623263777 2.6922007310219023
O -2.209719260206447 -2.5285317738505353 -11.246464789794624
H -1.7308438737745546 -3.1186227855858046 -10.64526738540988
H -2.252158864458716 -1.6884683187333192 -10.765367901769524
O 13.357841668865538 5.100952045062922 2.4194267295908087
H 13.057667217492742 4.643580400562794 1.6196306090386456
H 12.85133088894188 4.683119538338778 3.132044979740036
O 1.198935621759888 -0.6708924892994959 -8.389385026138312
H 1.5348953767160523 -0.24699646743629633 -7.585388407614111
H 1.6186599227733272 -0.17498950783289335 -9.108324306197005
O 4.280416859365493 12.446026951018444 4.195198206514037
H 4.641547608537749 11.617826470051941 4.5453922987388236
H 4.867401211587744 13.12793718151909 4.554933876256111
O -1.6817405124084153 -10.486756474069738 -1.7522133300664136
H -1.7523279343603457 -10.285574793620558 -2.6974702814895832
H -2.361438236122471 -9.930343186804455 -1.3430957400845476
O -7.6801025364218924 -6.432429827373496 -3.538979191745734
H -7.640647942178181 -6.3382546430200355 -2.5753704918342724
H -6.75476986147697 -6.365736436671147 -3.8187529871875148
O -7.404197438579629 -6.99495246155916 2.2305256730705665
H -8.256623965459921 -7.392810796921478 2.463001732383198
H -7.042480373289156 -6.703067981420046 3.080776318016847
O 4.560519354503242 -6.335995051524332 -7.134338860129047
H 4.917696630605642 -5.473465865228568 -7.394021653405841
H 3.765622535110267 -6.433990168056998 -7.679772584750729
O 10.765567702883065 5.734756896846651 -9.229780221728976
H 10.512458052039994 6.018430453545596 -10.121089469285552
H 10.08838933547886 5.084456687022158 -8.98998647676886
O -4.000686254063213 -2.1839578277464256 6.109508268696668
H -4.552014843624536 -2.8688495492216357 5.702166307824668
H -4.544077777777909 -1.848971473585002 6.838529351231775
O 8.06290527488623 9.024764931928141 -2.5597007116615376
H 8.074549121529422 8.81409830330114 -1.6139463305887962
H 8.28061426205223 8.184013444396252 -2.9894700421401894
C 8.073091124837568 2.462090854299139 1.01858877144288
O 7.323027462406518 3.3663554345961026 1.2477793655362572
O 8.823154787268617 1.5578262740021747 0.789398177349502