146

C -5.3564454929577465 1.0091607042253532 -0.0734429577464788
C -4.079135492957747 0.16955070422535368 -0.19788295774647868
C -4.333545492957747 -1.2789292957746463 0.3017270422535212
C -3.1403854929577464 -2.1745492957746464 0.7330270422535212
C -2.905235492957746 0.902300704225353 0.41966704225352136
C -2.7423854929577463 1.056130704225354 1.8024770422535212
C -1.8861754929577463 1.3499307042253532 -0.4326129577464788
C -1.5304554929577463 1.5279207042253526 2.3254170422535214
H -3.5237954929577464 0.7301007042253529 2.484817042253521
C -0.6776454929577462 1.8010507042253527 0.08546704225352131
H -1.9759254929577463 1.2426607042253535 -1.5115229577464788
C -0.4680254929577463 1.8513207042253539 1.4698070422535212
H -1.3950654929577464 1.5446707042253527 3.404047042253521
H 0.1461845070422536 1.9972507042253538 -0.6030529577464789
C -1.8679654929577463 -2.0866092957746467 -0.08765295774647863
C -0.6628654929577462 -1.814079295774647 0.5787970422535212
C -1.8438954929577462 -2.213429295774647 -1.4808029577464787
C 0.5129345070422537 -1.5763292957746469 -0.13022295774647863
H -0.6401854929577462 -1.7032692957746463 1.6609470422535213
C -0.6547954929577462 -1.9962392957746466 -2.1933129577464787
H -2.7578654929577464 -2.4351492957746466 -2.026182957746479
C 0.5308845070422537 -1.645769295774647 -1.5261029577464789
H 1.4044045070422537 -1.2610992957746463 0.41551704225352126
H -0.6795654929577464 -2.0467992957746466 -3.2793129577464786
C 1.7843245070422535 -1.2521692957746469 -2.2771629577464787
H 1.4981245070422535 -0.9384492957746469 -3.290282957746479
H 2.241984507042254 -0.38631929577464685 -1.8135029577464787
C 0.9385645070422537 2.0647807042253534 1.9815670422535212
H 1.0508945070422537 1.5807407042253532 2.9609770422535213
H 1.6053245070422537 1.5496207042253536 1.3096170422535214
C 3.9676945070422533 -1.6881692957746468 -3.314052957746479
H 4.795084507042254 -2.398849295774647 -3.4044129577464783
H 3.548404507042253 -1.4816192957746468 -4.303802957746479
H 4.307714507042253 -0.7637192957746466 -2.851282957746479
C 2.344694507042253 -3.565079295774647 -3.101282957746479
H 1.6334345070422536 -4.047909295774646 -2.4251929577464786
H 1.8561845070422536 -3.293109295774647 -4.041792957746479
H 3.1808045070422537 -4.243519295774647 -3.298122957746479
C 3.5156645070422536 -2.648489295774647 -1.1110629577464786
H 3.9311845070422535 -1.748249295774647 -0.6771029577464787
H 2.767184507042254 -3.1044092957746465 -0.45972295774647876
H 4.319224507042254 -3.371819295774647 -1.2863129577464787
C 2.963994507042253 3.381090704225353 2.401027042253521
H 3.3337945070422537 4.369820704225353 2.6912870422535216
H 3.120994507042253 2.671350704225353 3.2183370422535216
H 3.4665445070422534 3.0664207042253535 1.4881370422535212
C 1.2973745070422538 4.282440704225354 0.8488370422535213
H 1.7592145070422538 3.7367207042253527 0.02653704225352116
H 0.23311450704225378 4.4484607042253534 0.6605570422535213
H 1.7921845070422535 5.251370704225354 0.9736770422535213
C 0.7724845070422537 4.194670704225353 3.2772470422535216
H -0.2956954929577462 4.278220704225354 3.057857042253521
H 0.9298945070422537 3.612620704225354 4.190337042253521
H 1.2046345070422537 5.193640704225353 3.3918370422535213
N 2.876084507042253 -2.324759295774647 -2.4576629577464786
N 1.4527845070422536 3.504690704225353 2.1388470422535213
C -3.593905492957746 -3.637819295774647 0.8297870422535213
H -2.8952554929577463 -1.8680692957746468 1.7595270422535212
H -5.022615492957747 -1.2402792957746467 1.1579970422535213
H -4.898275492957747 -1.7933092957746464 -0.48931295774647876
H -3.883675492957746 0.07871070422535364 -1.2758929577464788
H -3.8751654929577466 -4.038529295774646 -0.1505529577464788
H -4.4603554929577465 -3.7321892957746465 1.4932570422535212
H -2.7953554929577464 -4.271929295774647 1.2313670422535212
H -5.648775492957746 1.147700704225353 0.9733970422535213
H -6.189795492957747 0.5254307042253537 -0.5943629577464788
H -5.2178854929577465 2.002970704225354 -0.5139729577464787
C 3.6710445070422537 1.0263707042253536 -0.27764295774647874
O 2.7356545070422538 1.6631507042253526 -0.7327029577464788
O 3.650814507042253 0.3883007042253537 0.7790570422535212
O 4.756604507042254 0.8696707042253538 -0.8334829577464786
O -4.856259728035064 0.9294703909252034 6.403872142688799
H -5.317195471167559 1.0905061081785603 7.240874589143762
H -5.358003088966687 0.2081191767791436 5.995377381509365
O -7.982896973203354 2.4245713804712556 1.7552457583795054
H -8.050503377515446 3.3692748213197294 1.5504723718151263
H -7.043146751361991 2.22449708448201 1.6295407826087884
O 5.779650415513202 5.846634916392844 -6.28432026896284
H 5.658147764591764 4.946049106901086 -5.947943006858015
H 4.9017571606550225 6.248196293483795 -6.20057161044625
O -1.388262816914225 1.4669986487552729 -4.691998884944391
H -1.6193029064412694 1.5048592923495443 -5.632293735296112
H -2.234879470230751 1.3050968720274017 -4.24929130502342
O -11.559240173966414 1.480260881925231 5.280737950624138
H -12.276764768598 1.324759102549513 5.913150007442924
H -10.761796376895518 1.4969628324420055 5.830980060664876
O 3.7559465033025554 0.2499169805887677 3.5000255614011646
H 3.1299320751681448 0.1372320348477794 2.7690157149073586
H 3.2114657587336524 0.1382621700614131 4.293773548094544
O -6.331467565579691 6.355637736448416 11.861345282182885
H -6.205941346680022 6.287876376694876 12.819791380507201
H -5.917998990377799 5.551189302192514 11.513683955251427
O -5.495416909462653 -1.2940744672468383 -3.2695099999750967
H -6.175005507117741 -1.6167103701961865 -2.658745913796766
H -5.983720141595729 -1.1068261757740485 -4.0852673015844125
O 5.668998394567449 -9.544129550662902 8.889346275729016
H 4.999459206982362 -8.925968186390461 9.218832483192603
H 6.509308462407067 -9.146884142069556 9.1632751342651
O -0.9208742314585279 -3.957747518551292 9.536818195792444
H -1.3425156057394334 -4.616164920950924 8.964391403432206
H -0.5029335560482144 -3.3416655706843335 8.9165516646544
O 5.881217068082905 -6.63412700234991 2.150983667579758
H 6.12521243732997 -5.73083804263525 2.402981032533437
H 6.093991024303884 -6.679255843757966 1.2067100973008693
O -10.1381266403435 -3.028068110452563 -8.335138511768225
H -9.859642374223423 -2.93545129153808 -9.25862971111867
H -9.662745515853743 -3.8134086805114467 -8.024953212634884
O -2.4667471031416115 5.32646825625555 -3.239954125197587
H -2.093341138445931 5.868692492620694 -2.528949047910564
H -2.6540582328728863 4.477093987370433 -2.812824359980194
O 5.533437303232192 -5.668721666679969 -1.2029622669964422
H 5.629859313428851 -5.671976488059669 -2.167150816496706
H 4.613183991943192 -5.935800250616216 -1.058862241443919
O 4.635976118442114 0.7409953983157851 -6.51025688718277
H 4.3113454632451225 1.1424393369481423 -7.330272166760969
H 5.581427434748102 0.6059258509653658 -6.674085975484656
O -6.7367793935054125 -6.588771435903614 9.953126723084717
H -6.818743752318187 -6.6944551859002495 10.912855927480967
H -7.619935232494071 -6.305408727618439 9.672585667419897
O 4.701508910982709 -0.9498979275914262 -7.170630236947618
H 4.685646632994988 -1.8958709080950178 -6.961224255194008
H 4.802812762738597 -0.9250977103488072 -8.134001620757694
O -6.791434005624228 -3.2943083345695867 0.8812728722876675
H -7.480275553171117 -3.735523337836863 1.4006898533010577
H -5.967297163981799 -3.5436326061112027 1.3257926335670531
O -8.599651121644717 1.5367394354562316 5.332024958691928
H -8.611915228051789 1.5456281716870235 4.363140064103177
H -8.136154612896076 2.354399825439964 5.5677460169991395
O -5.241231123881341 -8.508786543170771 7.225068467613982
H -5.404107067321674 -8.245466901142368 8.143274081880445
H -4.720728375328492 -7.777214957449614 6.860593711266768
O 9.643662378982798 -7.2696717999072415 0.02741810646159748
H 9.465448443117474 -7.206327883981045 -0.9229474538774367
H 9.945128995235759 -6.380948540099654 0.2687701130038347
O -2.792459374185968 -5.689705104775194 -2.0695779659419213
H -2.825195471885195 -5.721187897771175 -1.1016396732018314
H -3.5178802002534724 -6.269026702442473 -2.3472703422934713
O 2.2023677245796995 -10.450899501263512 -1.5874771305050592
H 2.432357091262938 -9.969017394126732 -0.7788598644674984
H 1.3924531438226389 -10.928427621090592 -1.3530262594221636
O -6.290932487186918 -4.296832216715924 -11.744426527321925
H -7.043618497893196 -4.0056995434622475 -11.208075063493181
H -6.3319249557839745 -5.263939293929572 -11.699867992543561
C 3.1604299993598213 -11.976621662893798 -2.8864721580207537
O 3.0453591564065183 -12.06236394460267 -1.6981013322557597
O 3.275500842313125 -11.89087938118493 -4.074842983785747