146

C -5.3564454929577465 1.0091607042253532 -0.0734429577464788
C -4.079135492957747 0.16955070422535368 -0.19788295774647868
C -4.333545492957747 -1.2789292957746463 0.3017270422535212
C -3.1403854929577464 -2.1745492957746464 0.7330270422535212
C -2.905235492957746 0.902300704225353 0.41966704225352136
C -2.7423854929577463 1.056130704225354 1.8024770422535212
C -1.8861754929577463 1.3499307042253532 -0.4326129577464788
C -1.5304554929577463 1.5279207042253526 2.3254170422535214
H -3.5237954929577464 0.7301007042253529 2.484817042253521
C -0.6776454929577462 1.8010507042253527 0.08546704225352131
H -1.9759254929577463 1.2426607042253535 -1.5115229577464788
C -0.4680254929577463 1.8513207042253539 1.4698070422535212
H -1.3950654929577464 1.5446707042253527 3.404047042253521
H 0.1461845070422536 1.9972507042253538 -0.6030529577464789
C -1.8679654929577463 -2.0866092957746467 -0.08765295774647863
C -0.6628654929577462 -1.814079295774647 0.5787970422535212
C -1.8438954929577462 -2.213429295774647 -1.4808029577464787
C 0.5129345070422537 -1.5763292957746469 -0.13022295774647863
H -0.6401854929577462 -1.7032692957746463 1.6609470422535213
C -0.6547954929577462 -1.9962392957746466 -2.1933129577464787
H -2.7578654929577464 -2.4351492957746466 -2.026182957746479
C 0.5308845070422537 -1.645769295774647 -1.5261029577464789
H 1.4044045070422537 -1.2610992957746463 0.41551704225352126
H -0.6795654929577464 -2.0467992957746466 -3.2793129577464786
C 1.7843245070422535 -1.2521692957746469 -2.2771629577464787
H 1.4981245070422535 -0.9384492957746469 -3.290282957746479
H 2.241984507042254 -0.38631929577464685 -1.8135029577464787
C 0.9385645070422537 2.0647807042253534 1.9815670422535212
H 1.0508945070422537 1.5807407042253532 2.9609770422535213
H 1.6053245070422537 1.5496207042253536 1.3096170422535214
C 3.9676945070422533 -1.6881692957746468 -3.314052957746479
H 4.795084507042254 -2.398849295774647 -3.4044129577464783
H 3.548404507042253 -1.4816192957746468 -4.303802957746479
H 4.307714507042253 -0.7637192957746466 -2.851282957746479
C 2.344694507042253 -3.565079295774647 -3.101282957746479
H 1.6334345070422536 -4.047909295774646 -2.4251929577464786
H 1.8561845070422536 -3.293109295774647 -4.041792957746479
H 3.1808045070422537 -4.243519295774647 -3.298122957746479
C 3.5156645070422536 -2.648489295774647 -1.1110629577464786
H 3.9311845070422535 -1.748249295774647 -0.6771029577464787
H 2.767184507042254 -3.1044092957746465 -0.45972295774647876
H 4.319224507042254 -3.371819295774647 -1.2863129577464787
C 2.963994507042253 3.381090704225353 2.401027042253521
H 3.3337945070422537 4.369820704225353 2.6912870422535216
H 3.120994507042253 2.671350704225353 3.2183370422535216
H 3.4665445070422534 3.0664207042253535 1.4881370422535212
C 1.2973745070422538 4.282440704225354 0.8488370422535213
H 1.7592145070422538 3.7367207042253527 0.02653704225352116
H 0.23311450704225378 4.4484607042253534 0.6605570422535213
H 1.7921845070422535 5.251370704225354 0.9736770422535213
C 0.7724845070422537 4.194670704225353 3.2772470422535216
H -0.2956954929577462 4.278220704225354 3.057857042253521
H 0.9298945070422537 3.612620704225354 4.190337042253521
H 1.2046345070422537 5.193640704225353 3.3918370422535213
N 2.876084507042253 -2.324759295774647 -2.4576629577464786
N 1.4527845070422536 3.504690704225353 2.1388470422535213
C -3.593905492957746 -3.637819295774647 0.8297870422535213
H -2.8952554929577463 -1.8680692957746468 1.7595270422535212
H -5.022615492957747 -1.2402792957746467 1.1579970422535213
H -4.898275492957747 -1.7933092957746464 -0.48931295774647876
H -3.883675492957746 0.07871070422535364 -1.2758929577464788
H -3.8751654929577466 -4.038529295774646 -0.1505529577464788
H -4.4603554929577465 -3.7321892957746465 1.4932570422535212
H -2.7953554929577464 -4.271929295774647 1.2313670422535212
H -5.648775492957746 1.147700704225353 0.9733970422535213
H -6.189795492957747 0.5254307042253537 -0.5943629577464788
H -5.2178854929577465 2.002970704225354 -0.5139729577464787
C 3.6710445070422537 1.0263707042253536 -0.27764295774647874
O 2.7356545070422538 1.6631507042253526 -0.7327029577464788
O 3.650814507042253 0.3883007042253537 0.7790570422535212
O 4.756604507042254 0.8696707042253538 -0.8334829577464786
O -5.232103998573367 5.182677522388774 -8.431419987781275
H -4.72692077482175 5.921289468321671 -8.803185586869116
H -4.756398698353754 4.960123907053818 -7.617088175837084
O 2.5672443145365014 4.464900813714896 5.750259026299473
H 2.570427038767584 4.35976082826521 4.786981905930619
H 2.933375296984871 3.6297666767672148 6.078071505159022
O -5.373855818508134 -9.809894315018717 -4.685707842172287
H -5.31314040372372 -9.717556150138243 -5.648388816646211
H -4.854105372188071 -9.065982255663421 -4.34597814697939
O 9.75864599620792 -6.724784423100443 -6.253874504550808
H 10.561545500297315 -6.32398506142203 -6.619496734333378
H 9.781483228750437 -6.4811142178853105 -5.316289715744903
O 5.054553908158792 -0.24625211833498606 6.345417018531551
H 4.792194441153241 -0.4276342431429433 7.260422697078255
H 4.42724524891913 -0.760851721346019 5.815668928470036
O -1.6406005075458623 6.698583687877652 5.31823298268518
H -1.5793918463801868 5.736457160613402 5.220593839751922
H -1.7172634694277842 7.021814893609855 4.407954826176744
O -7.397462482695401 -7.008045650949629 8.580482115950748
H -7.7817976561731 -6.121104270608514 8.648222939436032
H -6.915656032399583 -7.118633129721054 9.413905716703884
O 8.689562934802105 -1.3037062254536944 -3.0736409019791577
H 8.589820429078305 -0.8465921756118618 -3.9222076553280836
H 9.431934272448558 -0.8486378595181789 -2.6484826682992755
O 2.0965616464045214 13.903886004150822 -1.9537754404473064
H 2.201945651034995 13.21136045112643 -2.623305071514002
H 1.1717916747520682 13.822224028144861 -1.6761177996291226
O -4.033608134395516 11.43580145956496 6.842509645586842
H -3.924636612032814 11.845126355415193 7.714028832897796
H -3.313897004393034 10.788625389851704 6.7962390454064465
O 2.2961547804559403 6.762142628361865 -1.3658559483079047
H 2.3465178919887397 6.657780091554002 -2.3279055181366965
H 1.3758653796885603 6.544369122457951 -1.154659207657076
O 8.43111025083404 -3.3601425542352388 -1.038081358318728
H 8.593126856938065 -4.097324106795913 -0.43039613156825896
H 9.318174452688197 -3.0349342670721864 -1.2532989599439714
O -3.4607085299432154 11.269419755568963 -3.7027174291242786
H -4.338610758376701 11.671850942368366 -3.6233185997705277
H -3.6367303457717273 10.316874191117982 -3.6775140107610227
O 7.821225580384814 -0.4969091226601919 2.0639685946044173
H 6.889096735999347 -0.6041873193030549 2.306031732834236
H 8.181773169913304 0.06648172885882547 2.765080660118819
O 8.037428632842817 2.2119362340765294 -11.116746913832777
H 8.427865343009746 1.9113565733885518 -11.951119971783912
H 8.803057536607533 2.4475772467168673 -10.57154269596403
O 3.867150063959718 -2.0346281445332597 4.65229215820933
H 4.532369672114835 -1.9952100994603224 5.355780926810921
H 4.376337497695835 -2.2675989470803284 3.861460503060271
O -2.6846584372079914 -8.308151396938115 -3.952151772580353
H -2.736274544995706 -8.325853966436096 -4.919617406776224
H -3.4827345961091574 -8.777692405283167 -3.666551299233631
O 4.6558841830390625 6.738942462794624 -6.360213476680312
H 4.357417172066944 7.269787399460578 -5.606497048918857
H 5.514596819033771 7.1234991532610925 -6.591926024679976
O -0.1101560311320342 10.765175019021893 -2.8111871055016686
H -0.2158600583291599 10.589503304910178 -1.8641213926837241
H 0.4379035072510242 11.563724630007275 -2.8413732858238365
O 2.799446946347498 7.88788362932173 9.614213410568617
H 2.627701835495056 8.527307095003044 10.321750409837476
H 2.042433560865045 7.989642095725195 9.017943427242598
O -0.7894788571002636 9.111961574242818 -2.8804303489586127
H -1.2361193475925276 8.630539891960272 -3.592970027138764
H -1.5054374539407385 9.343878094636933 -2.2700370663296967
O 2.0851476356564707 1.1723146770953692 15.60385396286688
H 1.851080005933305 0.5062544460622158 16.26758845063427
H 1.5312297904157557 0.947520303387346 14.841224003730014
O -9.026728752827271 3.119944934052941 -6.852753344893225
H -9.051949058440904 3.723428112663571 -7.610473178485275
H -8.218808107343838 3.3710408029425243 -6.380337172934412
O 0.965951074641889 4.77446614039026 -7.449524912495745
H 1.1373214458848726 4.634304958917646 -8.392898855303285
H 0.3422055740241182 4.070059952910927 -7.217759043999291
C -12.890487225936985 2.1502504356024574 4.277754035503593
O -11.826190763252335 1.6718559940581337 4.544643628999548
O -13.954783688621633 2.628644877146781 4.0108644420076365