146

C -5.3564454929577465 1.0091607042253532 -0.0734429577464788
C -4.079135492957747 0.16955070422535368 -0.19788295774647868
C -4.333545492957747 -1.2789292957746463 0.3017270422535212
C -3.1403854929577464 -2.1745492957746464 0.7330270422535212
C -2.905235492957746 0.902300704225353 0.41966704225352136
C -2.7423854929577463 1.056130704225354 1.8024770422535212
C -1.8861754929577463 1.3499307042253532 -0.4326129577464788
C -1.5304554929577463 1.5279207042253526 2.3254170422535214
H -3.5237954929577464 0.7301007042253529 2.484817042253521
C -0.6776454929577462 1.8010507042253527 0.08546704225352131
H -1.9759254929577463 1.2426607042253535 -1.5115229577464788
C -0.4680254929577463 1.8513207042253539 1.4698070422535212
H -1.3950654929577464 1.5446707042253527 3.404047042253521
H 0.1461845070422536 1.9972507042253538 -0.6030529577464789
C -1.8679654929577463 -2.0866092957746467 -0.08765295774647863
C -0.6628654929577462 -1.814079295774647 0.5787970422535212
C -1.8438954929577462 -2.213429295774647 -1.4808029577464787
C 0.5129345070422537 -1.5763292957746469 -0.13022295774647863
H -0.6401854929577462 -1.7032692957746463 1.6609470422535213
C -0.6547954929577462 -1.9962392957746466 -2.1933129577464787
H -2.7578654929577464 -2.4351492957746466 -2.026182957746479
C 0.5308845070422537 -1.645769295774647 -1.5261029577464789
H 1.4044045070422537 -1.2610992957746463 0.41551704225352126
H -0.6795654929577464 -2.0467992957746466 -3.2793129577464786
C 1.7843245070422535 -1.2521692957746469 -2.2771629577464787
H 1.4981245070422535 -0.9384492957746469 -3.290282957746479
H 2.241984507042254 -0.38631929577464685 -1.8135029577464787
C 0.9385645070422537 2.0647807042253534 1.9815670422535212
H 1.0508945070422537 1.5807407042253532 2.9609770422535213
H 1.6053245070422537 1.5496207042253536 1.3096170422535214
C 3.9676945070422533 -1.6881692957746468 -3.314052957746479
H 4.795084507042254 -2.398849295774647 -3.4044129577464783
H 3.548404507042253 -1.4816192957746468 -4.303802957746479
H 4.307714507042253 -0.7637192957746466 -2.851282957746479
C 2.344694507042253 -3.565079295774647 -3.101282957746479
H 1.6334345070422536 -4.047909295774646 -2.4251929577464786
H 1.8561845070422536 -3.293109295774647 -4.041792957746479
H 3.1808045070422537 -4.243519295774647 -3.298122957746479
C 3.5156645070422536 -2.648489295774647 -1.1110629577464786
H 3.9311845070422535 -1.748249295774647 -0.6771029577464787
H 2.767184507042254 -3.1044092957746465 -0.45972295774647876
H 4.319224507042254 -3.371819295774647 -1.2863129577464787
C 2.963994507042253 3.381090704225353 2.401027042253521
H 3.3337945070422537 4.369820704225353 2.6912870422535216
H 3.120994507042253 2.671350704225353 3.2183370422535216
H 3.4665445070422534 3.0664207042253535 1.4881370422535212
C 1.2973745070422538 4.282440704225354 0.8488370422535213
H 1.7592145070422538 3.7367207042253527 0.02653704225352116
H 0.23311450704225378 4.4484607042253534 0.6605570422535213
H 1.7921845070422535 5.251370704225354 0.9736770422535213
C 0.7724845070422537 4.194670704225353 3.2772470422535216
H -0.2956954929577462 4.278220704225354 3.057857042253521
H 0.9298945070422537 3.612620704225354 4.190337042253521
H 1.2046345070422537 5.193640704225353 3.3918370422535213
N 2.876084507042253 -2.324759295774647 -2.4576629577464786
N 1.4527845070422536 3.504690704225353 2.1388470422535213
C -3.593905492957746 -3.637819295774647 0.8297870422535213
H -2.8952554929577463 -1.8680692957746468 1.7595270422535212
H -5.022615492957747 -1.2402792957746467 1.1579970422535213
H -4.898275492957747 -1.7933092957746464 -0.48931295774647876
H -3.883675492957746 0.07871070422535364 -1.2758929577464788
H -3.8751654929577466 -4.038529295774646 -0.1505529577464788
H -4.4603554929577465 -3.7321892957746465 1.4932570422535212
H -2.7953554929577464 -4.271929295774647 1.2313670422535212
H -5.648775492957746 1.147700704225353 0.9733970422535213
H -6.189795492957747 0.5254307042253537 -0.5943629577464788
H -5.2178854929577465 2.002970704225354 -0.5139729577464787
C 3.6710445070422537 1.0263707042253536 -0.27764295774647874
O 2.7356545070422538 1.6631507042253526 -0.7327029577464788
O 3.650814507042253 0.3883007042253537 0.7790570422535212
O 4.756604507042254 0.8696707042253538 -0.8334829577464786
O -8.808129104797619 -3.9894100685122753 -10.212250867063332
H -8.89801140263004 -4.288528395911116 -9.29496315012252
H -7.907321613503438 -3.63497607049384 -10.255659955707907
O 4.064582372213084 -10.63009800809161 -1.3693112842933044
H 3.866511722085801 -10.18913380167014 -2.209124324864384
H 3.3739454445657984 -10.311348928303298 -0.7689933663498016
O 7.2989708178418935 -7.731651305345467 -5.542435517322037
H 7.096674662947704 -6.791800811980412 -5.663780779843868
H 6.4298012004052225 -8.160027406459747 -5.542244679379496
O 3.8001047659318754 -6.188296900782124 3.528863938400665
H 3.465949927266278 -6.8811630154560515 2.9395894286575173
H 4.656650379970949 -5.947582599540139 3.1450043539846835
O 11.435704637239251 7.193707831524417 -2.3455339362136547
H 11.134604342811485 7.146902226411742 -3.2653791432596835
H 10.981419565435349 6.455308875517258 -1.9126898538887789
O -1.9141027214244934 3.35537869451003 4.474154002591583
H -2.6893440651332394 3.7798655599072952 4.0769398072134955
H -2.159367367901545 3.244175979440062 5.404982211043365
O -3.4827692516909323 1.47223422862245 -5.8706197925220005
H -3.516819220741806 1.35149038985415 -6.831467793980676
H -2.576275730160156 1.2234026868068375 -5.635429861784314
O -3.3329039930282804 12.40754291544959 -0.5560554189390889
H -3.9234925677842005 13.174579233162172 -0.5133028800940359
H -3.708696260814752 11.861923743213747 -1.263191781079076
O -6.766146474932473 -11.046021110617176 -5.091707949816068
H -6.739663508405304 -11.08050842667587 -4.123680763000021
H -6.150328921872767 -11.741435233422132 -5.367624392687762
O 5.507391923874851 1.630818470639062 -12.341219142678838
H 5.671758914572865 2.2321179690532746 -11.599336562700241
H 4.571168233472528 1.3978882792291651 -12.250716812547491
O 1.0069472738550047 -2.3774483158816415 8.397196304007872
H 0.24587290310972199 -2.566314817087065 8.966461272029877
H 0.6377737578355964 -1.8326143276320717 7.685979892064268
O -7.650878107769803 -6.786285868077975 3.2081466577236846
H -7.710594580644651 -6.73988665715739 4.174194489351774
H -8.56271739617528 -6.9515350027238085 2.9249439389531973
O -12.447613760229586 1.8794651357548577 -4.793575518286598
H -12.34580662739203 1.6840479986743793 -5.737193453225663
H -12.334931798859296 2.8404030202516823 -4.740067556070575
O 2.028178772483383 3.9081465428283115 -1.8896952400766311
H 2.735849144876081 4.568317728093514 -1.8412802931788002
H 1.793774659857419 3.884795945217736 -2.8296268364575927
O -2.850936949813487 4.379191558174721 -6.309071001995806
H -3.11995106673037 4.4852362371465695 -5.38421788508416
H -3.377002972781531 5.040597695119944 -6.783157919965266
O -6.558142200297471 -6.635514241913731 -4.108232367984596
H -6.348325601345458 -6.857475325491188 -3.188625044676799
H -6.3722523252129575 -7.452776720829555 -4.594533652372604
O 9.40187610782045 3.674481118539543 -11.367462162140693
H 9.820810407325895 4.433118186583785 -11.800972494874664
H 8.65335040817478 3.459408369280685 -11.944016525402478
O -1.6996767174855645 9.333189495027803 -10.853721678828217
H -0.7965798572052298 9.17327860730869 -10.5409726966705
H -2.253419241064872 9.125433793038997 -10.08614840534147
O 2.610637997365357 -2.0837495665410963 -9.702537931378542
H 1.7532936982440348 -2.511973430680696 -9.559176737725863
H 3.1983840069026543 -2.8135037763520137 -9.949469836640343
O -4.6722373849963486 -1.8724069026839338 -12.64343539655275
H -5.223738052554701 -1.2404459460459942 -13.128656706748373
H -5.262825231137098 -2.221109592948846 -11.958910470715244
O -5.430470541382783 -3.1472830047785143 -7.082110001763987
H -4.8023658824136035 -2.9507568087194422 -7.793326810159122
H -6.087182177232878 -2.4377298252301727 -7.1471181322703385
O 8.445720395109767 6.805776398751362 0.6856126302784133
H 7.810578300269065 7.490437038209734 0.944072849727787
H 7.9094403245978135 6.159521152551166 0.2021668866520807
O 8.454493130420586 7.203352009410084 7.890800939013862
H 8.85944602726018 6.359165188291872 8.140458943675338
H 7.661237272993148 6.94562562534215 7.397562457230123
O 9.066507077387879 -2.845955869949126 1.728476931672689
H 9.0769039194389 -3.751850999605009 2.072298508425978
H 10.00422557368567 -2.6200876292642175 1.6355818088141079
C 10.679510213638432 -5.6128035230231195 4.213513591008411
O 9.836893288420603 -6.2995812672804 3.712363608838072
O 11.522127138856263 -4.926025778765839 4.714663573178749