146

C -5.3564454929577465 1.0091607042253532 -0.0734429577464788
C -4.079135492957747 0.16955070422535368 -0.19788295774647868
C -4.333545492957747 -1.2789292957746463 0.3017270422535212
C -3.1403854929577464 -2.1745492957746464 0.7330270422535212
C -2.905235492957746 0.902300704225353 0.41966704225352136
C -2.7423854929577463 1.056130704225354 1.8024770422535212
C -1.8861754929577463 1.3499307042253532 -0.4326129577464788
C -1.5304554929577463 1.5279207042253526 2.3254170422535214
H -3.5237954929577464 0.7301007042253529 2.484817042253521
C -0.6776454929577462 1.8010507042253527 0.08546704225352131
H -1.9759254929577463 1.2426607042253535 -1.5115229577464788
C -0.4680254929577463 1.8513207042253539 1.4698070422535212
H -1.3950654929577464 1.5446707042253527 3.404047042253521
H 0.1461845070422536 1.9972507042253538 -0.6030529577464789
C -1.8679654929577463 -2.0866092957746467 -0.08765295774647863
C -0.6628654929577462 -1.814079295774647 0.5787970422535212
C -1.8438954929577462 -2.213429295774647 -1.4808029577464787
C 0.5129345070422537 -1.5763292957746469 -0.13022295774647863
H -0.6401854929577462 -1.7032692957746463 1.6609470422535213
C -0.6547954929577462 -1.9962392957746466 -2.1933129577464787
H -2.7578654929577464 -2.4351492957746466 -2.026182957746479
C 0.5308845070422537 -1.645769295774647 -1.5261029577464789
H 1.4044045070422537 -1.2610992957746463 0.41551704225352126
H -0.6795654929577464 -2.0467992957746466 -3.2793129577464786
C 1.7843245070422535 -1.2521692957746469 -2.2771629577464787
H 1.4981245070422535 -0.9384492957746469 -3.290282957746479
H 2.241984507042254 -0.38631929577464685 -1.8135029577464787
C 0.9385645070422537 2.0647807042253534 1.9815670422535212
H 1.0508945070422537 1.5807407042253532 2.9609770422535213
H 1.6053245070422537 1.5496207042253536 1.3096170422535214
C 3.9676945070422533 -1.6881692957746468 -3.314052957746479
H 4.795084507042254 -2.398849295774647 -3.4044129577464783
H 3.548404507042253 -1.4816192957746468 -4.303802957746479
H 4.307714507042253 -0.7637192957746466 -2.851282957746479
C 2.344694507042253 -3.565079295774647 -3.101282957746479
H 1.6334345070422536 -4.047909295774646 -2.4251929577464786
H 1.8561845070422536 -3.293109295774647 -4.041792957746479
H 3.1808045070422537 -4.243519295774647 -3.298122957746479
C 3.5156645070422536 -2.648489295774647 -1.1110629577464786
H 3.9311845070422535 -1.748249295774647 -0.6771029577464787
H 2.767184507042254 -3.1044092957746465 -0.45972295774647876
H 4.319224507042254 -3.371819295774647 -1.2863129577464787
C 2.963994507042253 3.381090704225353 2.401027042253521
H 3.3337945070422537 4.369820704225353 2.6912870422535216
H 3.120994507042253 2.671350704225353 3.2183370422535216
H 3.4665445070422534 3.0664207042253535 1.4881370422535212
C 1.2973745070422538 4.282440704225354 0.8488370422535213
H 1.7592145070422538 3.7367207042253527 0.02653704225352116
H 0.23311450704225378 4.4484607042253534 0.6605570422535213
H 1.7921845070422535 5.251370704225354 0.9736770422535213
C 0.7724845070422537 4.194670704225353 3.2772470422535216
H -0.2956954929577462 4.278220704225354 3.057857042253521
H 0.9298945070422537 3.612620704225354 4.190337042253521
H 1.2046345070422537 5.193640704225353 3.3918370422535213
N 2.876084507042253 -2.324759295774647 -2.4576629577464786
N 1.4527845070422536 3.504690704225353 2.1388470422535213
C -3.593905492957746 -3.637819295774647 0.8297870422535213
H -2.8952554929577463 -1.8680692957746468 1.7595270422535212
H -5.022615492957747 -1.2402792957746467 1.1579970422535213
H -4.898275492957747 -1.7933092957746464 -0.48931295774647876
H -3.883675492957746 0.07871070422535364 -1.2758929577464788
H -3.8751654929577466 -4.038529295774646 -0.1505529577464788
H -4.4603554929577465 -3.7321892957746465 1.4932570422535212
H -2.7953554929577464 -4.271929295774647 1.2313670422535212
H -5.648775492957746 1.147700704225353 0.9733970422535213
H -6.189795492957747 0.5254307042253537 -0.5943629577464788
H -5.2178854929577465 2.002970704225354 -0.5139729577464787
C 3.6710445070422537 1.0263707042253536 -0.27764295774647874
O 2.7356545070422538 1.6631507042253526 -0.7327029577464788
O 3.650814507042253 0.3883007042253537 0.7790570422535212
O 4.756604507042254 0.8696707042253538 -0.8334829577464786
O -13.363570958724598 -0.12436976402074285 5.578700214477325
H -13.801076821914382 0.27572605986073473 6.345172202411108
H -14.09163427403433 -0.32296821102364337 4.97088082514507
O 14.87916155766241 4.09125130332721 -0.6770976423156947
H 15.629833370434966 3.6883729406302637 -0.2154178709596284
H 15.290428770085672 4.607635347489577 -1.386441524519606
O 8.172496142994238 -1.0108132243953944 -4.697245577390477
H 8.296131470952721 -0.8984358342796155 -3.7427546215551883
H 8.98542479009526 -0.6507481878492725 -5.082553413385984
O 8.05006866966018 -7.020262972136955 2.941548109663455
H 7.965596844762197 -6.469359055739962 2.148871162479509
H 7.569345769101259 -7.830715678111643 2.715641384317524
O 8.161369841710458 7.114684894848649 -1.0365811191994592
H 8.079587426620936 7.940572592440255 -0.5363926502710337
H 8.432819515676627 6.464221691350268 -0.3716189851660374
O 4.834053980249476 -0.4107655499474539 -5.221665577061348
H 4.23924291029546 -0.4695200414645204 -4.458963107098959
H 5.7003576212371 -0.22528748570976675 -4.82913808299472
O -1.4533909781568384 -4.951443273381612 6.0243909603079775
H -0.9738612664955092 -5.435410754244129 6.7134439989063095
H -1.9713503591033887 -4.296332776907153 6.515827895629748
O 0.28990764892723897 -7.216589490464538 2.0672506010026934
H 0.2977980337670276 -7.021776761155502 3.0164360935310217
H 0.24698398259363596 -6.343347799147098 1.6494367049753627
O 10.033206270088277 5.20066557957823 5.363910738021502
H 10.50704260599687 5.530670693889624 4.585744233858643
H 9.384999467302292 4.580467821658594 4.997653142614354
O 4.522129499477851 -3.9219511514188725 2.069107715855437
H 5.434787473595242 -3.941729499698032 2.3941178635728413
H 4.543924763905583 -4.478534505652789 1.2762004826066484
O -6.743462057976908 -7.452061029758852 4.011540427270271
H -6.049777778290061 -7.577028596330155 4.676485977161829
H -6.46376822853418 -8.013722436565354 3.2731165854451283
O -5.694246667526722 3.1743623141539987 4.0924785324973865
H -6.577120855633623 2.8525879719934952 3.8559160722426857
H -5.765936633488128 4.1371149238580145 4.009232478004932
O -8.55649920925447 -6.358017807312729 5.4952622585159485
H -8.15863553769509 -6.828482796552018 6.24314898099026
H -8.281620466216113 -6.872990854811048 4.721824231731677
O 0.4658097931106502 -8.345311363127507 -11.615277832558863
H 0.2155189597497973 -7.96115294970331 -12.468942971258421
H 1.3572713677971118 -8.000583774229618 -11.455837892110491
O 7.430848932852079 -7.544694870151627 6.1621883720955495
H 7.505198580935674 -8.1391468219192 5.400567492806143
H 6.736911453068464 -6.9194879288389055 5.904256212437328
O -3.1210920859050644 4.751910218999723 -4.8596858610797184
H -3.349286673402761 5.5050007045912555 -4.294222062372614
H -2.8716636520595715 4.055968322242 -4.233257671239376
O -2.820291660863437 -9.958330148024324 -5.164154348165761
H -3.0012317415498986 -10.693832159651624 -4.55978291022931
H -3.6480168271698528 -9.45461238755521 -5.174224658538213
O -9.192464218464433 3.4972069545705073 2.397118987957554
H -9.437745679933409 3.6220337331564036 1.4680212337317071
H -8.224278962973855 3.4609888484317275 2.380763434210799
O -6.987120978581682 -5.757169947859188 -11.568181855575471
H -6.954084191906677 -5.962470134300316 -12.514610807517153
H -7.926297535998718 -5.590534853700955 -11.397471329558005
O -2.1308618246908098 -9.372651498234676 -0.7602235013194155
H -2.870673066506572 -9.291975672662709 -0.13962854923609203
H -1.8906693848130909 -10.310435691716043 -0.7174409980956702
O -0.29607266471826343 10.404927940732334 -1.4009475329581385
H -1.2042990813122616 10.50351101862636 -1.0778786396029183
H 0.23865789793473247 10.383367451966764 -0.5931354787097503
O -2.39644293443662 13.000090398290553 0.621720520204553
H -2.784488526391133 13.68927970799302 1.1815473424063003
H -2.51480193550072 12.187054643058666 1.1354577603201803
O -6.589456100756555 -5.782365057332216 1.9390277987185738
H -5.6602716506335575 -5.624984663531761 2.1644496836295914
H -6.907362442159965 -6.3616763397898515 2.6477561955059383
O -0.47714194424500267 -0.7179804101566748 -7.226080015177853
H -0.009054636990208031 -0.35177297918936223 -6.460734506801879
H -1.413482150680752 -0.6015033995401489 -7.005485209913324
C 9.471313496128914 4.993687405140097 -4.687702489114161
O 9.618381517464792 5.175349937345878 -5.861665000778368
O 9.324245474793035 4.812024872934315 -3.513739977449953