146

C -5.3564454929577465 1.0091607042253532 -0.0734429577464788
C -4.079135492957747 0.16955070422535368 -0.19788295774647868
C -4.333545492957747 -1.2789292957746463 0.3017270422535212
C -3.1403854929577464 -2.1745492957746464 0.7330270422535212
C -2.905235492957746 0.902300704225353 0.41966704225352136
C -2.7423854929577463 1.056130704225354 1.8024770422535212
C -1.8861754929577463 1.3499307042253532 -0.4326129577464788
C -1.5304554929577463 1.5279207042253526 2.3254170422535214
H -3.5237954929577464 0.7301007042253529 2.484817042253521
C -0.6776454929577462 1.8010507042253527 0.08546704225352131
H -1.9759254929577463 1.2426607042253535 -1.5115229577464788
C -0.4680254929577463 1.8513207042253539 1.4698070422535212
H -1.3950654929577464 1.5446707042253527 3.404047042253521
H 0.1461845070422536 1.9972507042253538 -0.6030529577464789
C -1.8679654929577463 -2.0866092957746467 -0.08765295774647863
C -0.6628654929577462 -1.814079295774647 0.5787970422535212
C -1.8438954929577462 -2.213429295774647 -1.4808029577464787
C 0.5129345070422537 -1.5763292957746469 -0.13022295774647863
H -0.6401854929577462 -1.7032692957746463 1.6609470422535213
C -0.6547954929577462 -1.9962392957746466 -2.1933129577464787
H -2.7578654929577464 -2.4351492957746466 -2.026182957746479
C 0.5308845070422537 -1.645769295774647 -1.5261029577464789
H 1.4044045070422537 -1.2610992957746463 0.41551704225352126
H -0.6795654929577464 -2.0467992957746466 -3.2793129577464786
C 1.7843245070422535 -1.2521692957746469 -2.2771629577464787
H 1.4981245070422535 -0.9384492957746469 -3.290282957746479
H 2.241984507042254 -0.38631929577464685 -1.8135029577464787
C 0.9385645070422537 2.0647807042253534 1.9815670422535212
H 1.0508945070422537 1.5807407042253532 2.9609770422535213
H 1.6053245070422537 1.5496207042253536 1.3096170422535214
C 3.9676945070422533 -1.6881692957746468 -3.314052957746479
H 4.795084507042254 -2.398849295774647 -3.4044129577464783
H 3.548404507042253 -1.4816192957746468 -4.303802957746479
H 4.307714507042253 -0.7637192957746466 -2.851282957746479
C 2.344694507042253 -3.565079295774647 -3.101282957746479
H 1.6334345070422536 -4.047909295774646 -2.4251929577464786
H 1.8561845070422536 -3.293109295774647 -4.041792957746479
H 3.1808045070422537 -4.243519295774647 -3.298122957746479
C 3.5156645070422536 -2.648489295774647 -1.1110629577464786
H 3.9311845070422535 -1.748249295774647 -0.6771029577464787
H 2.767184507042254 -3.1044092957746465 -0.45972295774647876
H 4.319224507042254 -3.371819295774647 -1.2863129577464787
C 2.963994507042253 3.381090704225353 2.401027042253521
H 3.3337945070422537 4.369820704225353 2.6912870422535216
H 3.120994507042253 2.671350704225353 3.2183370422535216
H 3.4665445070422534 3.0664207042253535 1.4881370422535212
C 1.2973745070422538 4.282440704225354 0.8488370422535213
H 1.7592145070422538 3.7367207042253527 0.02653704225352116
H 0.23311450704225378 4.4484607042253534 0.6605570422535213
H 1.7921845070422535 5.251370704225354 0.9736770422535213
C 0.7724845070422537 4.194670704225353 3.2772470422535216
H -0.2956954929577462 4.278220704225354 3.057857042253521
H 0.9298945070422537 3.612620704225354 4.190337042253521
H 1.2046345070422537 5.193640704225353 3.3918370422535213
N 2.876084507042253 -2.324759295774647 -2.4576629577464786
N 1.4527845070422536 3.504690704225353 2.1388470422535213
C -3.593905492957746 -3.637819295774647 0.8297870422535213
H -2.8952554929577463 -1.8680692957746468 1.7595270422535212
H -5.022615492957747 -1.2402792957746467 1.1579970422535213
H -4.898275492957747 -1.7933092957746464 -0.48931295774647876
H -3.883675492957746 0.07871070422535364 -1.2758929577464788
H -3.8751654929577466 -4.038529295774646 -0.1505529577464788
H -4.4603554929577465 -3.7321892957746465 1.4932570422535212
H -2.7953554929577464 -4.271929295774647 1.2313670422535212
H -5.648775492957746 1.147700704225353 0.9733970422535213
H -6.189795492957747 0.5254307042253537 -0.5943629577464788
H -5.2178854929577465 2.002970704225354 -0.5139729577464787
C 3.6710445070422537 1.0263707042253536 -0.27764295774647874
O 2.7356545070422538 1.6631507042253526 -0.7327029577464788
O 3.650814507042253 0.3883007042253537 0.7790570422535212
O 4.756604507042254 0.8696707042253538 -0.8334829577464786
O -10.16126847469938 -4.062961058201321 5.412725998894889
H -10.8651837239312 -4.4628082966089835 5.945260377819549
H -10.540098393705287 -4.014944673097034 4.522139527221592
O -5.525110360903508 -0.6249661783440996 -9.402042519631541
H -6.221054302169671 -0.3196748972110779 -8.800854844126562
H -5.138080631461257 0.19368017736877752 -9.74698900404018
O 4.73139813625284 -1.8271093210053988 8.468799330047965
H 4.607085714531046 -2.491157011251622 7.774137942187432
H 4.706801070473704 -0.9832896371289355 7.993062775053835
O -8.621648639245961 2.7001580780435117 -4.4896889151696335
H -9.559386364378694 2.479851247477691 -4.5949515209179745
H -8.548024869503696 3.5928660083658825 -4.859302275275145
O -7.877452149961935 -5.601059234783926 -9.070382930987805
H -7.297532805377754 -5.164572942747292 -9.712364727880182
H -7.3505253885608095 -6.348071909399831 -8.749007455286073
O -0.4938644794531424 -10.7787077644413 -0.12607122939270177
H -0.4525213071224288 -11.043308244715387 0.8051885006720947
H -1.3905302564169935 -10.426258423745239 -0.22966606982755344
O -7.657914649729666 -4.196143573085501 -0.6326237918099371
H -8.3486637855689 -4.3867685896672235 -1.2849236394954706
H -7.30603530413389 -3.3365522364851623 -0.908749858099831
O -2.9382859838622615 1.877738221260331 -12.467345931255096
H -2.29606122998307 2.2840105335478342 -13.068559313236383
H -2.421860759978669 1.2125858752073622 -11.987930361027122
O -4.760478913010727 -9.212234844517528 -10.648474229258413
H -4.251413570649428 -9.67312399738968 -11.332141562741127
H -4.09361091815466 -8.703826217369556 -10.162913018309515
O 1.5086423546198415 -8.980339678201087 -0.6870383900114083
H 1.6606273675883512 -8.50406050880602 0.14303754960695514
H 2.2067210061478604 -9.652207585017614 -0.7025836906132761
O 7.951392748780422 4.478266113777499 -8.042134274083457
H 8.43964712483891 4.929381056617602 -8.747166421936381
H 7.594557408485901 3.6873993675980254 -8.473597220353914
O 6.521263844016275 -8.360726428978838 -8.622439110385642
H 5.968329546704994 -8.890487751359863 -9.216226918500617
H 6.877652602691565 -9.007644020283784 -7.995185870417851
O -2.0222692401298397 -7.804669951020999 1.9643001730615992
H -2.819667079382648 -7.85749809979843 2.512326841711678
H -1.4059221765176577 -8.420851677905278 2.3878545626393106
O 10.715303738373255 -2.3629834626230846 6.607162611946107
H 10.738564680909 -2.3690643256837967 7.575867576606032
H 10.794010252228379 -1.425003462892537 6.3770305866166135
O 9.752091273649803 -1.3004690590465622 0.6569520408223177
H 9.656392709333772 -1.2846057567924036 -0.30718358103253585
H 10.58089124820112 -1.781102305958362 0.802018330658222
O 3.685004241110338 7.433719327909753 5.388544884205647
H 2.732271906477054 7.554324148278704 5.2592277053469
H 3.9943756069960727 7.085850909913748 4.538698506304939
O 0.8711196473400016 -7.796484261186503 3.8328870671634565
H 1.3795970227056351 -7.846916003505964 3.009555569522378
H 0.1069123194133792 -7.246958619078399 3.6027334816842664
O 0.5224220447019903 -7.564302045194919 5.283233269590008
H 0.8915698342641871 -7.468964237715614 6.174080040267427
H 0.042719710590356286 -8.405537447866598 5.317447480667687
O -0.3370920972476098 2.933889437364259 7.331557460724853
H -0.27641790666806776 3.5044004997092597 6.550658538175016
H 0.5078223999415364 2.4595580460712636 7.341105652892125
O -1.8412871324934348 0.1885796755554563 -3.6191741111323283
H -1.8667065126147369 -0.3866942089594223 -2.8398274810572306
H -1.8196571030771473 -0.42913229139304265 -4.365448867516374
O -8.661398824344179 -2.6945340122887367 -3.9355532058296356
H -8.502977766558596 -2.7244717718990548 -4.891049859879043
H -7.808088954099591 -2.9422429848886376 -3.548946849781697
O -3.4283168434376674 6.328540674607388 8.932322839365389
H -4.005680836946637 5.5873463396769 9.16949183769006
H -2.9063011149278326 5.99017573423631 8.18937553933932
O 3.4655239512969125 8.8198026785479 -5.092037672776787
H 2.887378329688424 8.890512519285288 -5.866450428055152
H 2.850745994038 8.772153343869547 -4.344548844450056
O -5.547972948472974 8.696298158893224 -3.3028377188303337
H -4.726070236979065 9.113567426844014 -3.601718376890996
H -5.755343051215231 9.154485761943837 -2.47457223892706
C 4.758988215430409 -4.428624393748833 1.5291151170895876
O 4.750603415329127 -4.348450941461805 2.7234015860641136
O 4.76737301553169 -4.5087978460358595 0.33482864811506147