146

C -5.3564454929577465 1.0091607042253532 -0.0734429577464788
C -4.079135492957747 0.16955070422535368 -0.19788295774647868
C -4.333545492957747 -1.2789292957746463 0.3017270422535212
C -3.1403854929577464 -2.1745492957746464 0.7330270422535212
C -2.905235492957746 0.902300704225353 0.41966704225352136
C -2.7423854929577463 1.056130704225354 1.8024770422535212
C -1.8861754929577463 1.3499307042253532 -0.4326129577464788
C -1.5304554929577463 1.5279207042253526 2.3254170422535214
H -3.5237954929577464 0.7301007042253529 2.484817042253521
C -0.6776454929577462 1.8010507042253527 0.08546704225352131
H -1.9759254929577463 1.2426607042253535 -1.5115229577464788
C -0.4680254929577463 1.8513207042253539 1.4698070422535212
H -1.3950654929577464 1.5446707042253527 3.404047042253521
H 0.1461845070422536 1.9972507042253538 -0.6030529577464789
C -1.8679654929577463 -2.0866092957746467 -0.08765295774647863
C -0.6628654929577462 -1.814079295774647 0.5787970422535212
C -1.8438954929577462 -2.213429295774647 -1.4808029577464787
C 0.5129345070422537 -1.5763292957746469 -0.13022295774647863
H -0.6401854929577462 -1.7032692957746463 1.6609470422535213
C -0.6547954929577462 -1.9962392957746466 -2.1933129577464787
H -2.7578654929577464 -2.4351492957746466 -2.026182957746479
C 0.5308845070422537 -1.645769295774647 -1.5261029577464789
H 1.4044045070422537 -1.2610992957746463 0.41551704225352126
H -0.6795654929577464 -2.0467992957746466 -3.2793129577464786
C 1.7843245070422535 -1.2521692957746469 -2.2771629577464787
H 1.4981245070422535 -0.9384492957746469 -3.290282957746479
H 2.241984507042254 -0.38631929577464685 -1.8135029577464787
C 0.9385645070422537 2.0647807042253534 1.9815670422535212
H 1.0508945070422537 1.5807407042253532 2.9609770422535213
H 1.6053245070422537 1.5496207042253536 1.3096170422535214
C 3.9676945070422533 -1.6881692957746468 -3.314052957746479
H 4.795084507042254 -2.398849295774647 -3.4044129577464783
H 3.548404507042253 -1.4816192957746468 -4.303802957746479
H 4.307714507042253 -0.7637192957746466 -2.851282957746479
C 2.344694507042253 -3.565079295774647 -3.101282957746479
H 1.6334345070422536 -4.047909295774646 -2.4251929577464786
H 1.8561845070422536 -3.293109295774647 -4.041792957746479
H 3.1808045070422537 -4.243519295774647 -3.298122957746479
C 3.5156645070422536 -2.648489295774647 -1.1110629577464786
H 3.9311845070422535 -1.748249295774647 -0.6771029577464787
H 2.767184507042254 -3.1044092957746465 -0.45972295774647876
H 4.319224507042254 -3.371819295774647 -1.2863129577464787
C 2.963994507042253 3.381090704225353 2.401027042253521
H 3.3337945070422537 4.369820704225353 2.6912870422535216
H 3.120994507042253 2.671350704225353 3.2183370422535216
H 3.4665445070422534 3.0664207042253535 1.4881370422535212
C 1.2973745070422538 4.282440704225354 0.8488370422535213
H 1.7592145070422538 3.7367207042253527 0.02653704225352116
H 0.23311450704225378 4.4484607042253534 0.6605570422535213
H 1.7921845070422535 5.251370704225354 0.9736770422535213
C 0.7724845070422537 4.194670704225353 3.2772470422535216
H -0.2956954929577462 4.278220704225354 3.057857042253521
H 0.9298945070422537 3.612620704225354 4.190337042253521
H 1.2046345070422537 5.193640704225353 3.3918370422535213
N 2.876084507042253 -2.324759295774647 -2.4576629577464786
N 1.4527845070422536 3.504690704225353 2.1388470422535213
C -3.593905492957746 -3.637819295774647 0.8297870422535213
H -2.8952554929577463 -1.8680692957746468 1.7595270422535212
H -5.022615492957747 -1.2402792957746467 1.1579970422535213
H -4.898275492957747 -1.7933092957746464 -0.48931295774647876
H -3.883675492957746 0.07871070422535364 -1.2758929577464788
H -3.8751654929577466 -4.038529295774646 -0.1505529577464788
H -4.4603554929577465 -3.7321892957746465 1.4932570422535212
H -2.7953554929577464 -4.271929295774647 1.2313670422535212
H -5.648775492957746 1.147700704225353 0.9733970422535213
H -6.189795492957747 0.5254307042253537 -0.5943629577464788
H -5.2178854929577465 2.002970704225354 -0.5139729577464787
C 3.6710445070422537 1.0263707042253536 -0.27764295774647874
O 2.7356545070422538 1.6631507042253526 -0.7327029577464788
O 3.650814507042253 0.3883007042253537 0.7790570422535212
O 4.756604507042254 0.8696707042253538 -0.8334829577464786
O 6.961017678049069 -5.010246339713404 -10.979899473564052
H 7.219852422643928 -4.96960776400993 -11.912809135886887
H 7.733681673420023 -5.394556203210719 -10.53915212714428
O 3.0370784243139317 1.2303412480881075 7.165096420498146
H 3.6871391001514744 1.4023514595160058 6.467385189547856
H 2.9370885964576576 2.086357862544106 7.608040586731953
O 0.14643552777546054 8.014739600069484 -10.044072485022502
H -0.4100537717145776 7.222713977779784 -10.088596973674289
H 1.0369438881150344 7.686392334217536 -10.239379621279408
O 11.952233100884499 2.7468828447775255 3.040756486239899
H 12.727460143924606 2.641415672049158 2.4690335952201545
H 11.201049737689534 2.661882218229959 2.4345713720663293
O 4.897045081209086 -8.22904431739196 -7.501891874133326
H 4.306846207587341 -7.904655256559932 -8.198601558067846
H 5.439377763202105 -7.458198234788808 -7.276872934313515
O -12.029646994412847 -5.823899309291796 4.3462738281546756
H -12.347218420672748 -6.6869446934073515 4.651672602022691
H -11.095805096224932 -5.978188057567095 4.1386774995637445
O -1.954102115234728 -3.887517610533239 -8.85256584802907
H -2.5226868304220087 -3.1076430580618393 -8.766110883088169
H -1.539522252875177 -3.779724203183367 -9.721741355828179
O 9.72455480667211 -1.7352368967740102 1.2143395299487083
H 9.101392953642218 -1.1673732263458816 0.7366706973499659
H 10.364532703010322 -2.0018070749279575 0.5373383655350219
O -9.616293598822221 -6.457185415809961 -3.8362195173447065
H -9.75216371030674 -6.462685689462572 -4.795634139233977
H -10.41234308442031 -6.0269643401241115 -3.4895539914920084
O -1.585076882003666 -8.222154918354954 6.37160509454822
H -1.677766174918387 -8.249298683467751 5.407427067473099
H -0.7553132037410346 -8.69330861594714 6.540330835860214
O 1.9726610137492762 12.700754816406716 7.930801535990563
H 2.641415200540681 13.33362597455352 8.23281029701397
H 1.416853417076522 13.217303599300983 7.328126487003708
O 8.273560227510256 0.6891676575624892 -10.753585293949122
H 7.930227490661887 0.5292020528637105 -11.64549391820475
H 8.410159525787492 -0.19959733925165946 -10.392476783320928
O 6.923238290895086 8.74235535953153 -3.7482725137642308
H 6.898677425168851 9.611391838492693 -3.320324247019802
H 6.3565876559674805 8.848868922846293 -4.527068933289983
O -5.567729465807396 12.028763535203783 3.6848537266946133
H -6.037718452498356 12.688032259711171 3.1524605841997
H -6.237763743248845 11.352218331427615 3.8645829636066447
O 4.231457990654425 -0.39061649909851104 -7.266915737673817
H 4.671165794887692 -0.772624497993792 -8.041315048479543
H 4.763231400697034 -0.7013244962075151 -6.518825151445006
O 2.647859567495426 0.7222960292263331 4.0071640366996775
H 3.5231355339780723 0.90966788535174 4.378312426067046
H 2.0902578841727975 0.5743978539860348 4.785732233337814
O -8.399928290477856 6.850661788003116 -6.191013683101882
H -7.92669157988646 6.48094292626965 -6.9514887556237515
H -8.165756157732968 7.790849545256181 -6.204141426897449
O -6.673739780812045 1.3944162738042234 3.2426449163282105
H -6.703185180074557 1.277723695398718 2.2811444392054234
H -6.472033558777607 0.5086580017955837 3.579852312244822
O 8.709451151283531 1.9154047717820883 -2.632624996575284
H 8.75598503020389 2.210180354576471 -1.7107197352816639
H 7.835308055481684 1.5031869322877986 -2.702712407460706
O -5.952045035600351 5.024530939858684 -8.501763979398065
H -5.3746160583661435 5.569535930659331 -7.946324789969875
H -6.224351259814776 5.622626763980894 -9.213868360596255
O -2.997835754407407 8.406138173410064 1.029853620581312
H -3.1335051212548812 8.441124371328284 1.9886743263206248
H -3.614036498239804 7.720553434123385 0.7311361071047524
O -6.5590880758385115 -3.440579363621981 -0.5818650139403858
H -6.303606759082511 -2.9343094231407503 -1.3676050479552961
H -7.0836960104007805 -2.8145825740504216 -0.06044725557344319
O -6.717615888541051 -8.526961234859986 -7.788749338509425
H -6.787185895106211 -8.442026032094809 -8.751512747877356
H -7.1889579282552045 -9.350363987031407 -7.5917555984702405
O -8.704273947527316 -3.312566875750436 1.690869148428106
H -8.933772035047282 -2.5474512291083307 1.1423292392253992
H -7.750919496232666 -3.2185530871989734 1.836603983175591
C 4.6718653317969645 -3.724548036154536 -7.405739953403151
O 4.938958742886791 -3.542648119221684 -8.5582987533228
O 4.404771920707138 -3.906447953087387 -6.253181153483501