146

C -5.3564454929577465 1.0091607042253532 -0.0734429577464788
C -4.079135492957747 0.16955070422535368 -0.19788295774647868
C -4.333545492957747 -1.2789292957746463 0.3017270422535212
C -3.1403854929577464 -2.1745492957746464 0.7330270422535212
C -2.905235492957746 0.902300704225353 0.41966704225352136
C -2.7423854929577463 1.056130704225354 1.8024770422535212
C -1.8861754929577463 1.3499307042253532 -0.4326129577464788
C -1.5304554929577463 1.5279207042253526 2.3254170422535214
H -3.5237954929577464 0.7301007042253529 2.484817042253521
C -0.6776454929577462 1.8010507042253527 0.08546704225352131
H -1.9759254929577463 1.2426607042253535 -1.5115229577464788
C -0.4680254929577463 1.8513207042253539 1.4698070422535212
H -1.3950654929577464 1.5446707042253527 3.404047042253521
H 0.1461845070422536 1.9972507042253538 -0.6030529577464789
C -1.8679654929577463 -2.0866092957746467 -0.08765295774647863
C -0.6628654929577462 -1.814079295774647 0.5787970422535212
C -1.8438954929577462 -2.213429295774647 -1.4808029577464787
C 0.5129345070422537 -1.5763292957746469 -0.13022295774647863
H -0.6401854929577462 -1.7032692957746463 1.6609470422535213
C -0.6547954929577462 -1.9962392957746466 -2.1933129577464787
H -2.7578654929577464 -2.4351492957746466 -2.026182957746479
C 0.5308845070422537 -1.645769295774647 -1.5261029577464789
H 1.4044045070422537 -1.2610992957746463 0.41551704225352126
H -0.6795654929577464 -2.0467992957746466 -3.2793129577464786
C 1.7843245070422535 -1.2521692957746469 -2.2771629577464787
H 1.4981245070422535 -0.9384492957746469 -3.290282957746479
H 2.241984507042254 -0.38631929577464685 -1.8135029577464787
C 0.9385645070422537 2.0647807042253534 1.9815670422535212
H 1.0508945070422537 1.5807407042253532 2.9609770422535213
H 1.6053245070422537 1.5496207042253536 1.3096170422535214
C 3.9676945070422533 -1.6881692957746468 -3.314052957746479
H 4.795084507042254 -2.398849295774647 -3.4044129577464783
H 3.548404507042253 -1.4816192957746468 -4.303802957746479
H 4.307714507042253 -0.7637192957746466 -2.851282957746479
C 2.344694507042253 -3.565079295774647 -3.101282957746479
H 1.6334345070422536 -4.047909295774646 -2.4251929577464786
H 1.8561845070422536 -3.293109295774647 -4.041792957746479
H 3.1808045070422537 -4.243519295774647 -3.298122957746479
C 3.5156645070422536 -2.648489295774647 -1.1110629577464786
H 3.9311845070422535 -1.748249295774647 -0.6771029577464787
H 2.767184507042254 -3.1044092957746465 -0.45972295774647876
H 4.319224507042254 -3.371819295774647 -1.2863129577464787
C 2.963994507042253 3.381090704225353 2.401027042253521
H 3.3337945070422537 4.369820704225353 2.6912870422535216
H 3.120994507042253 2.671350704225353 3.2183370422535216
H 3.4665445070422534 3.0664207042253535 1.4881370422535212
C 1.2973745070422538 4.282440704225354 0.8488370422535213
H 1.7592145070422538 3.7367207042253527 0.02653704225352116
H 0.23311450704225378 4.4484607042253534 0.6605570422535213
H 1.7921845070422535 5.251370704225354 0.9736770422535213
C 0.7724845070422537 4.194670704225353 3.2772470422535216
H -0.2956954929577462 4.278220704225354 3.057857042253521
H 0.9298945070422537 3.612620704225354 4.190337042253521
H 1.2046345070422537 5.193640704225353 3.3918370422535213
N 2.876084507042253 -2.324759295774647 -2.4576629577464786
N 1.4527845070422536 3.504690704225353 2.1388470422535213
C -3.593905492957746 -3.637819295774647 0.8297870422535213
H -2.8952554929577463 -1.8680692957746468 1.7595270422535212
H -5.022615492957747 -1.2402792957746467 1.1579970422535213
H -4.898275492957747 -1.7933092957746464 -0.48931295774647876
H -3.883675492957746 0.07871070422535364 -1.2758929577464788
H -3.8751654929577466 -4.038529295774646 -0.1505529577464788
H -4.4603554929577465 -3.7321892957746465 1.4932570422535212
H -2.7953554929577464 -4.271929295774647 1.2313670422535212
H -5.648775492957746 1.147700704225353 0.9733970422535213
H -6.189795492957747 0.5254307042253537 -0.5943629577464788
H -5.2178854929577465 2.002970704225354 -0.5139729577464787
C 3.6710445070422537 1.0263707042253536 -0.27764295774647874
O 2.7356545070422538 1.6631507042253526 -0.7327029577464788
O 3.650814507042253 0.3883007042253537 0.7790570422535212
O 4.756604507042254 0.8696707042253538 -0.8334829577464786
O -5.612057021354774 -2.382431358160018 -7.070406783556193
H -5.551301316016452 -2.374890032046932 -8.03747411811429
H -5.11181346451244 -1.598405052438002 -6.798338630194544
O 11.364657039531172 1.2060968623094293 -8.502666162642488
H 11.359080033450233 1.5000935770658042 -9.42597661184992
H 10.469435505951651 1.4035608290394257 -8.188742076343294
O -5.272014263328104 -12.864135744839071 1.927915955013299
H -5.680119959970756 -13.5152021924423 2.518279891981951
H -6.003558393609048 -12.566162492773055 1.3666521393216975
O -11.486752739637046 -0.43604771324662595 3.1886757900275233
H -11.048485361033325 -1.2015291374349626 3.589833179308116
H -12.365606622261865 -0.4290791946439475 3.596755729553795
O -5.234454724984435 -14.787560231708643 5.534676578188308
H -5.011536379414615 -15.67102650904854 5.20488557632258
H -5.13464557850037 -14.215958917646375 4.758614714455518
O 6.163380971483753 -3.1507814999079566 5.0151931483956975
H 5.793316379300781 -4.043342645756802 5.08836524303189
H 6.722057532568634 -3.1931240904154032 4.224592396167692
O 0.26661314778681094 12.067805528779079 2.3204752282851557
H -0.030746724033285044 12.663278626684782 1.6162336126433898
H 0.9687470413705932 11.545462158331954 1.9043894881656285
O -7.680123840292543 3.0979932881773884 2.060364421270129
H -7.749406126687102 2.428844947086151 2.757793858064124
H -7.976991322894346 2.6357262457452033 1.262153406841821
O 3.592633791093511 -6.006335490030984 -1.890985424303985
H 3.0031332013889367 -5.247815258484967 -1.764085976025682
H 4.31337286795164 -5.85037311230771 -1.2623576615344783
O 0.40198161913649555 -7.531987858113368 -0.7670030252836377
H 0.38008112044021836 -7.0931756568775555 -1.6306763298979676
H 0.2651628894610436 -8.468113288338214 -0.9765543516844484
O -1.980246076225946 1.8034430740877192 -7.938488253643665
H -1.5949631056549405 2.0658150832671485 -7.08896761334872
H -1.9391468427308889 0.8354067301220756 -7.92513033210821
O 4.967985288136581 -7.3104880030566814 4.897828030236827
H 5.179165437735376 -6.617850654732018 4.253915144031552
H 3.9993091400919285 -7.321792147258343 4.920203928726975
O -8.080806940717999 8.525929802784873 6.835555433626116
H -8.286318959569353 8.320117876121433 7.759878763338573
H -7.876374420253047 7.663626474000766 6.443634194033013
O -3.6639443928273523 0.9828607179742361 6.1930790327267236
H -3.528197624364176 1.5382892263496046 6.975408467067346
H -3.5953365960069377 0.07823250215101352 6.533523897061526
O -1.491631836076807 -4.184181980497341 -4.086538039152901
H -1.4828279604924162 -4.956928789426358 -3.501942266020117
H -0.5537155730494505 -3.978273834749685 -4.2164490216122745
O -1.191357214244082 -7.061526349849337 -4.906462074789571
H -0.9303132266358236 -7.695122450070402 -5.591574748163986
H -0.36890315887445 -6.595879978133736 -4.692675434388114
O 0.19274532100877506 9.801321199299805 -5.725828905171358
H 0.952568710499957 9.683632473263124 -6.31556201213246
H -0.2964247983126578 10.539702487109 -6.118852584453268
O -0.29510941230448995 5.602967293158701 0.007867925278984611
H -0.6202000087045976 6.452926096095915 0.3408146092116531
H -0.4472740763088794 5.652297843730796 -0.9478382827727814
O -7.1829945845714285 -6.96030076814744 3.840313827264322
H -7.40782873387629 -6.904484920710857 2.8994091809896334
H -6.214842776083515 -6.921570768232497 3.8523141242676706
O 8.948039402315665 0.9771558502269171 -0.8196643583897716
H 9.886527014360915 1.1290369976592969 -1.0071222896496357
H 8.829994505200972 1.3216063644927982 0.07832294095646719
O -5.210446305281403 -4.332842665451013 13.10352156888057
H -5.01049724866572 -4.733744168034327 13.962745472694323
H -6.16438838149535 -4.166455535182497 13.13918362728485
O -0.0013238644309501169 6.0772085926089385 10.94238025415488
H 0.20635698738643038 6.412889797294473 11.827340224723761
H -0.909927746840949 6.375532887359538 10.786163915921538
O 5.216316182466956 9.892875106494524 -1.2449413778600602
H 5.340688294774702 9.388470553135821 -0.42697134104262335
H 4.476694867763763 9.447193380299442 -1.6845890254967681
O 0.4740368872472137 -1.1554267785245167 3.232381551005915
H 0.06590821765637027 -1.4804041178357004 4.048952475599874
H 0.2707187904931683 -0.20799955937873782 3.2300663287685802
C -3.230181800749759 -10.047026700434387 -2.911390161460936
O -2.3997459181857774 -9.936046692871216 -3.7663041572356333
O -4.06061768331374 -10.158006707997561 -2.056476165686238