146

C -5.3564454929577465 1.0091607042253532 -0.0734429577464788
C -4.079135492957747 0.16955070422535368 -0.19788295774647868
C -4.333545492957747 -1.2789292957746463 0.3017270422535212
C -3.1403854929577464 -2.1745492957746464 0.7330270422535212
C -2.905235492957746 0.902300704225353 0.41966704225352136
C -2.7423854929577463 1.056130704225354 1.8024770422535212
C -1.8861754929577463 1.3499307042253532 -0.4326129577464788
C -1.5304554929577463 1.5279207042253526 2.3254170422535214
H -3.5237954929577464 0.7301007042253529 2.484817042253521
C -0.6776454929577462 1.8010507042253527 0.08546704225352131
H -1.9759254929577463 1.2426607042253535 -1.5115229577464788
C -0.4680254929577463 1.8513207042253539 1.4698070422535212
H -1.3950654929577464 1.5446707042253527 3.404047042253521
H 0.1461845070422536 1.9972507042253538 -0.6030529577464789
C -1.8679654929577463 -2.0866092957746467 -0.08765295774647863
C -0.6628654929577462 -1.814079295774647 0.5787970422535212
C -1.8438954929577462 -2.213429295774647 -1.4808029577464787
C 0.5129345070422537 -1.5763292957746469 -0.13022295774647863
H -0.6401854929577462 -1.7032692957746463 1.6609470422535213
C -0.6547954929577462 -1.9962392957746466 -2.1933129577464787
H -2.7578654929577464 -2.4351492957746466 -2.026182957746479
C 0.5308845070422537 -1.645769295774647 -1.5261029577464789
H 1.4044045070422537 -1.2610992957746463 0.41551704225352126
H -0.6795654929577464 -2.0467992957746466 -3.2793129577464786
C 1.7843245070422535 -1.2521692957746469 -2.2771629577464787
H 1.4981245070422535 -0.9384492957746469 -3.290282957746479
H 2.241984507042254 -0.38631929577464685 -1.8135029577464787
C 0.9385645070422537 2.0647807042253534 1.9815670422535212
H 1.0508945070422537 1.5807407042253532 2.9609770422535213
H 1.6053245070422537 1.5496207042253536 1.3096170422535214
C 3.9676945070422533 -1.6881692957746468 -3.314052957746479
H 4.795084507042254 -2.398849295774647 -3.4044129577464783
H 3.548404507042253 -1.4816192957746468 -4.303802957746479
H 4.307714507042253 -0.7637192957746466 -2.851282957746479
C 2.344694507042253 -3.565079295774647 -3.101282957746479
H 1.6334345070422536 -4.047909295774646 -2.4251929577464786
H 1.8561845070422536 -3.293109295774647 -4.041792957746479
H 3.1808045070422537 -4.243519295774647 -3.298122957746479
C 3.5156645070422536 -2.648489295774647 -1.1110629577464786
H 3.9311845070422535 -1.748249295774647 -0.6771029577464787
H 2.767184507042254 -3.1044092957746465 -0.45972295774647876
H 4.319224507042254 -3.371819295774647 -1.2863129577464787
C 2.963994507042253 3.381090704225353 2.401027042253521
H 3.3337945070422537 4.369820704225353 2.6912870422535216
H 3.120994507042253 2.671350704225353 3.2183370422535216
H 3.4665445070422534 3.0664207042253535 1.4881370422535212
C 1.2973745070422538 4.282440704225354 0.8488370422535213
H 1.7592145070422538 3.7367207042253527 0.02653704225352116
H 0.23311450704225378 4.4484607042253534 0.6605570422535213
H 1.7921845070422535 5.251370704225354 0.9736770422535213
C 0.7724845070422537 4.194670704225353 3.2772470422535216
H -0.2956954929577462 4.278220704225354 3.057857042253521
H 0.9298945070422537 3.612620704225354 4.190337042253521
H 1.2046345070422537 5.193640704225353 3.3918370422535213
N 2.876084507042253 -2.324759295774647 -2.4576629577464786
N 1.4527845070422536 3.504690704225353 2.1388470422535213
C -3.593905492957746 -3.637819295774647 0.8297870422535213
H -2.8952554929577463 -1.8680692957746468 1.7595270422535212
H -5.022615492957747 -1.2402792957746467 1.1579970422535213
H -4.898275492957747 -1.7933092957746464 -0.48931295774647876
H -3.883675492957746 0.07871070422535364 -1.2758929577464788
H -3.8751654929577466 -4.038529295774646 -0.1505529577464788
H -4.4603554929577465 -3.7321892957746465 1.4932570422535212
H -2.7953554929577464 -4.271929295774647 1.2313670422535212
H -5.648775492957746 1.147700704225353 0.9733970422535213
H -6.189795492957747 0.5254307042253537 -0.5943629577464788
H -5.2178854929577465 2.002970704225354 -0.5139729577464787
C 3.6710445070422537 1.0263707042253536 -0.27764295774647874
O 2.7356545070422538 1.6631507042253526 -0.7327029577464788
O 3.650814507042253 0.3883007042253537 0.7790570422535212
O 4.756604507042254 0.8696707042253538 -0.8334829577464786
O 9.337999844223187 6.125500129467263 4.697270293901335
H 10.231192162905963 6.097801822493492 5.071980371877454
H 9.02762745734567 7.021225329751736 4.8980370524528745
O -11.818633793387084 -4.8570185850470935 0.28716488401497997
H -11.88627743464484 -5.3141252771407474 1.138895573106662
H -10.867011904900362 -4.714378707445821 0.17300888999426112
O -8.105851895319365 2.2043843195994173 6.574273704583497
H -8.384252128660085 3.1088689650433707 6.366023390941574
H -8.69173723885236 1.6497232582808157 6.037569488473592
O -0.12434826164341217 11.426118418024785 4.036526271599371
H -0.30640101633278327 12.0873460899055 4.7210714617433265
H -0.4056422107610609 10.590191270091152 4.437850905577079
O 2.097128507175291 8.187069255242601 3.389313340017675
H 2.498186995261092 7.322272083193516 3.5632250913464363
H 2.0185346149595627 8.58944798057258 4.267308958348543
O 5.232874339300652 0.36398139923722184 11.809865794711541
H 5.684741082102935 0.581756798293811 10.980795424227225
H 5.948826949094055 0.316179239386865 12.461086769760453
O -13.487896679229877 3.8894099959517785 5.172400498569148
H -13.413282766528216 3.2600281984031945 4.439407542364341
H -14.397497469479458 3.776000235395281 5.486608348388113
O 9.504376280435931 11.965182658927846 0.04471483047354691
H 8.866462134267667 11.826157368278647 0.7607489550642144
H 9.101871173923573 12.661786581220856 -0.4953727170383997
O -0.5633149653821455 2.533490760147009 9.432434915634623
H 0.3229970747974966 2.367060508259258 9.787004084611821
H -0.5724305648446348 2.0539389435384363 8.59046763281785
O 8.822965620977056 7.323076559415576 -3.0447505890238156
H 9.603031568394908 7.3346082645570645 -2.4700058679905386
H 9.172726222488787 7.552997307491688 -3.918687609371548
O 7.125969305687903 -15.725155711278711 1.230303630810698
H 6.765700804463213 -16.60509103707895 1.043520905875699
H 6.347143351624684 -15.198169955854667 1.4641370996676297
O -4.505649333594496 3.2509540461489888 1.610000585878789
H -4.20851851432296 3.1955027302448213 2.530655670426484
H -4.134825873616915 4.0887297036639 1.2944314912169204
O -4.422849263708588 10.722934534917215 3.0834149218646587
H -4.307932868215303 10.952236825229605 4.01785702205296
H -5.313110827570975 10.342397929234664 3.0435628962586807
O 3.8964366834460646 3.2724052597262703 -11.853913189864048
H 3.8569634215294526 3.3561958940522305 -12.818479594054509
H 3.394534236543227 4.036183584199008 -11.531890598795409
O 2.351795697677357 -6.139295872372901 -3.718116321004804
H 1.7504745198950147 -5.583062493051518 -3.2004440059451973
H 2.272635562278027 -7.013871456249011 -3.308466268702453
O 8.327670863978636 2.0069100900652663 1.346348941587239
H 8.612059947724388 1.527821779618891 0.5535282829639343
H 9.153724504563892 2.3419734965483907 1.7262566156499881
O 7.049895375112914 -4.286635019680599 -1.2806441397370372
H 6.855816874025337 -4.6150891748895155 -0.38990357131006914
H 6.470904671402458 -4.810419470722366 -1.8545618674330424
O -0.32467780066542473 1.2020381368607564 -12.015105934994557
H 0.19802452397041748 1.1556190296295759 -12.829719280824435
H -0.48078490772707916 0.2740450444009519 -11.783975374981976
O 10.431105142154628 -10.82467600955933 -4.229702780755528
H 9.577792446417028 -11.212517266393096 -3.983930610462317
H 10.991171950290987 -10.980914735680443 -3.4545404911774016
O -1.8903441512713566 11.749442827810418 6.405941577786015
H -2.2715974251619095 11.864865221237707 7.289282377898436
H -2.6455207408668655 11.85966115435776 5.8088467919102715
O -5.051838888790451 5.802098471604774 -1.973621358324873
H -5.200570779600536 5.573482792305736 -2.9034498654888004
H -5.403886451953824 6.701411955143836 -1.8945029919642962
O 1.2328919343795017 8.19878402855208 -5.4690357195023775
H 0.8429737858292727 8.202037334222815 -6.3561211778057904
H 0.7672380363582092 7.482811387664785 -5.011311382091259
O 3.9131072719418794 -0.7043254994443737 -9.613615105307172
H 3.3412455200264963 -1.2860908469347438 -9.09065184268189
H 4.809774095364121 -1.0004376116439135 -9.396202665270746
O 5.359948383883779 -0.16155862930869316 4.046067183964906
H 5.300519628303967 -0.17705615960363077 5.013122201254508
H 4.570928970069302 -0.6431018000083462 3.7553327971504418
C 6.0145825078591155 12.582974958097743 -3.326276286529678
O 6.213377715416543 11.779899854489038 -2.4611929953281493
O 5.815787300301688 13.386050061706445 -4.191359577731208