146

C -5.3564454929577465 1.0091607042253532 -0.0734429577464788
C -4.079135492957747 0.16955070422535368 -0.19788295774647868
C -4.333545492957747 -1.2789292957746463 0.3017270422535212
C -3.1403854929577464 -2.1745492957746464 0.7330270422535212
C -2.905235492957746 0.902300704225353 0.41966704225352136
C -2.7423854929577463 1.056130704225354 1.8024770422535212
C -1.8861754929577463 1.3499307042253532 -0.4326129577464788
C -1.5304554929577463 1.5279207042253526 2.3254170422535214
H -3.5237954929577464 0.7301007042253529 2.484817042253521
C -0.6776454929577462 1.8010507042253527 0.08546704225352131
H -1.9759254929577463 1.2426607042253535 -1.5115229577464788
C -0.4680254929577463 1.8513207042253539 1.4698070422535212
H -1.3950654929577464 1.5446707042253527 3.404047042253521
H 0.1461845070422536 1.9972507042253538 -0.6030529577464789
C -1.8679654929577463 -2.0866092957746467 -0.08765295774647863
C -0.6628654929577462 -1.814079295774647 0.5787970422535212
C -1.8438954929577462 -2.213429295774647 -1.4808029577464787
C 0.5129345070422537 -1.5763292957746469 -0.13022295774647863
H -0.6401854929577462 -1.7032692957746463 1.6609470422535213
C -0.6547954929577462 -1.9962392957746466 -2.1933129577464787
H -2.7578654929577464 -2.4351492957746466 -2.026182957746479
C 0.5308845070422537 -1.645769295774647 -1.5261029577464789
H 1.4044045070422537 -1.2610992957746463 0.41551704225352126
H -0.6795654929577464 -2.0467992957746466 -3.2793129577464786
C 1.7843245070422535 -1.2521692957746469 -2.2771629577464787
H 1.4981245070422535 -0.9384492957746469 -3.290282957746479
H 2.241984507042254 -0.38631929577464685 -1.8135029577464787
C 0.9385645070422537 2.0647807042253534 1.9815670422535212
H 1.0508945070422537 1.5807407042253532 2.9609770422535213
H 1.6053245070422537 1.5496207042253536 1.3096170422535214
C 3.9676945070422533 -1.6881692957746468 -3.314052957746479
H 4.795084507042254 -2.398849295774647 -3.4044129577464783
H 3.548404507042253 -1.4816192957746468 -4.303802957746479
H 4.307714507042253 -0.7637192957746466 -2.851282957746479
C 2.344694507042253 -3.565079295774647 -3.101282957746479
H 1.6334345070422536 -4.047909295774646 -2.4251929577464786
H 1.8561845070422536 -3.293109295774647 -4.041792957746479
H 3.1808045070422537 -4.243519295774647 -3.298122957746479
C 3.5156645070422536 -2.648489295774647 -1.1110629577464786
H 3.9311845070422535 -1.748249295774647 -0.6771029577464787
H 2.767184507042254 -3.1044092957746465 -0.45972295774647876
H 4.319224507042254 -3.371819295774647 -1.2863129577464787
C 2.963994507042253 3.381090704225353 2.401027042253521
H 3.3337945070422537 4.369820704225353 2.6912870422535216
H 3.120994507042253 2.671350704225353 3.2183370422535216
H 3.4665445070422534 3.0664207042253535 1.4881370422535212
C 1.2973745070422538 4.282440704225354 0.8488370422535213
H 1.7592145070422538 3.7367207042253527 0.02653704225352116
H 0.23311450704225378 4.4484607042253534 0.6605570422535213
H 1.7921845070422535 5.251370704225354 0.9736770422535213
C 0.7724845070422537 4.194670704225353 3.2772470422535216
H -0.2956954929577462 4.278220704225354 3.057857042253521
H 0.9298945070422537 3.612620704225354 4.190337042253521
H 1.2046345070422537 5.193640704225353 3.3918370422535213
N 2.876084507042253 -2.324759295774647 -2.4576629577464786
N 1.4527845070422536 3.504690704225353 2.1388470422535213
C -3.593905492957746 -3.637819295774647 0.8297870422535213
H -2.8952554929577463 -1.8680692957746468 1.7595270422535212
H -5.022615492957747 -1.2402792957746467 1.1579970422535213
H -4.898275492957747 -1.7933092957746464 -0.48931295774647876
H -3.883675492957746 0.07871070422535364 -1.2758929577464788
H -3.8751654929577466 -4.038529295774646 -0.1505529577464788
H -4.4603554929577465 -3.7321892957746465 1.4932570422535212
H -2.7953554929577464 -4.271929295774647 1.2313670422535212
H -5.648775492957746 1.147700704225353 0.9733970422535213
H -6.189795492957747 0.5254307042253537 -0.5943629577464788
H -5.2178854929577465 2.002970704225354 -0.5139729577464787
C 3.6710445070422537 1.0263707042253536 -0.27764295774647874
O 2.7356545070422538 1.6631507042253526 -0.7327029577464788
O 3.650814507042253 0.3883007042253537 0.7790570422535212
O 4.756604507042254 0.8696707042253538 -0.8334829577464786
O -3.9270508910980473 -8.868836139432295 -8.092893494144079
H -3.8825823211571775 -9.040190817326907 -7.14019864396851
H -4.442026656134098 -9.612358295126786 -8.440653051477806
O -3.7880528035848364 2.3255933681248466 -6.686300453754628
H -3.7459455772957417 3.2013901525624613 -7.098822369248791
H -2.86773640040309 2.022311910430548 -6.686441000667904
O 0.36023175717282574 3.294025266922918 -5.508468889742418
H 1.1207422498836461 3.7026689522722522 -5.948470578149248
H -0.39486630377492005 3.5526996500164483 -6.057901712009285
O 9.754819202541517 1.3330982862851442 7.111613429535831
H 10.245511920049259 0.5725625654532109 7.457696412682245
H 10.281312384410253 2.097566122880255 7.389742537249006
O 1.851787453873721 -1.0469197605283207 4.617402416036063
H 0.9921496892583289 -0.8881167831874777 5.035459690742217
H 2.4472698705409677 -1.2148797312640496 5.363158464600597
O -2.040479466114564 1.7353422602609179 -3.7358831505838705
H -2.1579171855157924 2.2044412909073743 -2.8961678188145887
H -1.0922695630978734 1.816088799599705 -3.9184753752427715
O -4.007045029094801 0.2877653598632479 13.971800156146665
H -3.2143903303941643 0.8020823523260949 13.756988804510454
H -4.736842460867481 0.8349430876722601 13.644761646078255
O -5.789236411800658 -6.016082085450979 3.6994624405138135
H -6.06223048252526 -5.429166858403323 2.9783715235631063
H -6.582140280876375 -6.093630648041738 4.251052523043282
O 7.9002691229125634 5.832172465000067 -1.4457568081807886
H 8.437535229999206 6.235505329262843 -2.1440655419666053
H 8.120742153664386 4.88990330641663 -1.49558069596132
O 5.097058353313469 -5.850054705169657 4.054954825725443
H 4.539635114554379 -5.5307528836766915 3.32949425713291
H 5.493891911129523 -6.661987149754236 3.7053110396774676
O 1.572424520950224 -7.375665924835317 2.181255220744368
H 1.8641153596585924 -7.999997029550661 2.86250002490696
H 1.8585940814165138 -6.512762035191627 2.516614437406621
O 9.886239466013725 9.648200804959147 6.2319477615875325
H 9.888253328781678 9.59589349649246 7.199536127959164
H 10.30221757344171 8.819060084883203 5.951858802946575
O -6.28393723636967 2.493042403690569 9.719158571386602
H -7.135653546639192 2.902987030115688 9.932447312266282
H -5.837093922277839 3.1541794841854904 9.169439772593911
O -9.57344960561721 2.403882481443099 -5.371972328820756
H -9.055246891577518 3.0007147249604498 -4.81141494802915
H -10.492409716816633 2.597726200170222 -5.133437486429995
O -1.302771693507553 6.79584354821072 3.7814474664422058
H -0.6813647691952396 6.787659307960742 4.524921614969404
H -0.8808519985011203 7.376129209788358 3.130130135003005
O 4.142860232195217 5.280798054166699 -4.559621981905057
H 5.047510625810716 4.995907174066438 -4.758147065123832
H 4.196495684147715 6.248311733846491 -4.56119113018293
O 6.547391804860116 7.9867963480416515 -7.226377755189959
H 6.35845664257484 7.967722065014975 -6.276163551402593
H 6.115096881656362 7.1892749640920535 -7.567028141679357
O -9.155673281186886 4.778963864664799 -1.9657394379720268
H -8.823676189399599 5.688608699180906 -2.0016777598993505
H -10.048476560658141 4.840804139370729 -2.3372768235601606
O 7.169568331878988 6.112207922504567 3.289584314900403
H 7.081686650973484 5.940144918304773 2.3400378496618837
H 6.8221839333314405 7.010297262311266 3.3978504761481636
O -7.62258724287728 -10.86632981792714 7.088458908545401
H -7.55597909608996 -11.817738178823463 6.917132195805882
H -8.265436819591148 -10.555029888192784 6.43363166433042
O 1.7558011190879785 6.694346701073197 11.968212747950453
H 2.2951717895190846 6.809882840462344 11.171533366220418
H 2.215708540538646 6.000039893483871 12.463576417318443
O 1.8457544325653155 8.1420450597819 1.9414728611877128
H 1.5474073935035495 7.618873360725613 2.700582717855136
H 1.7313469084211495 7.545422348737101 1.1865462399954572
O -11.773097250590103 3.379802043388758 10.232148730666667
H -12.027560911618153 3.2520426901876247 11.158373946143891
H -12.46249937093881 3.9614769712591453 9.878113507778203
O -9.08288409702813 9.135702658984643 7.010162612416514
H -9.391543514624736 9.349255117696982 7.903522600443088
H -9.316165854620255 9.91833696737649 6.488602352041223
C -7.056401935900605 10.543520194601607 -4.614703027163632
O -6.879420049103613 9.61802367909656 -3.876494473410838
O -7.233383822697597 11.469016710106654 -5.352911580916425