146

C -5.3564454929577465 1.0091607042253532 -0.0734429577464788
C -4.079135492957747 0.16955070422535368 -0.19788295774647868
C -4.333545492957747 -1.2789292957746463 0.3017270422535212
C -3.1403854929577464 -2.1745492957746464 0.7330270422535212
C -2.905235492957746 0.902300704225353 0.41966704225352136
C -2.7423854929577463 1.056130704225354 1.8024770422535212
C -1.8861754929577463 1.3499307042253532 -0.4326129577464788
C -1.5304554929577463 1.5279207042253526 2.3254170422535214
H -3.5237954929577464 0.7301007042253529 2.484817042253521
C -0.6776454929577462 1.8010507042253527 0.08546704225352131
H -1.9759254929577463 1.2426607042253535 -1.5115229577464788
C -0.4680254929577463 1.8513207042253539 1.4698070422535212
H -1.3950654929577464 1.5446707042253527 3.404047042253521
H 0.1461845070422536 1.9972507042253538 -0.6030529577464789
C -1.8679654929577463 -2.0866092957746467 -0.08765295774647863
C -0.6628654929577462 -1.814079295774647 0.5787970422535212
C -1.8438954929577462 -2.213429295774647 -1.4808029577464787
C 0.5129345070422537 -1.5763292957746469 -0.13022295774647863
H -0.6401854929577462 -1.7032692957746463 1.6609470422535213
C -0.6547954929577462 -1.9962392957746466 -2.1933129577464787
H -2.7578654929577464 -2.4351492957746466 -2.026182957746479
C 0.5308845070422537 -1.645769295774647 -1.5261029577464789
H 1.4044045070422537 -1.2610992957746463 0.41551704225352126
H -0.6795654929577464 -2.0467992957746466 -3.2793129577464786
C 1.7843245070422535 -1.2521692957746469 -2.2771629577464787
H 1.4981245070422535 -0.9384492957746469 -3.290282957746479
H 2.241984507042254 -0.38631929577464685 -1.8135029577464787
C 0.9385645070422537 2.0647807042253534 1.9815670422535212
H 1.0508945070422537 1.5807407042253532 2.9609770422535213
H 1.6053245070422537 1.5496207042253536 1.3096170422535214
C 3.9676945070422533 -1.6881692957746468 -3.314052957746479
H 4.795084507042254 -2.398849295774647 -3.4044129577464783
H 3.548404507042253 -1.4816192957746468 -4.303802957746479
H 4.307714507042253 -0.7637192957746466 -2.851282957746479
C 2.344694507042253 -3.565079295774647 -3.101282957746479
H 1.6334345070422536 -4.047909295774646 -2.4251929577464786
H 1.8561845070422536 -3.293109295774647 -4.041792957746479
H 3.1808045070422537 -4.243519295774647 -3.298122957746479
C 3.5156645070422536 -2.648489295774647 -1.1110629577464786
H 3.9311845070422535 -1.748249295774647 -0.6771029577464787
H 2.767184507042254 -3.1044092957746465 -0.45972295774647876
H 4.319224507042254 -3.371819295774647 -1.2863129577464787
C 2.963994507042253 3.381090704225353 2.401027042253521
H 3.3337945070422537 4.369820704225353 2.6912870422535216
H 3.120994507042253 2.671350704225353 3.2183370422535216
H 3.4665445070422534 3.0664207042253535 1.4881370422535212
C 1.2973745070422538 4.282440704225354 0.8488370422535213
H 1.7592145070422538 3.7367207042253527 0.02653704225352116
H 0.23311450704225378 4.4484607042253534 0.6605570422535213
H 1.7921845070422535 5.251370704225354 0.9736770422535213
C 0.7724845070422537 4.194670704225353 3.2772470422535216
H -0.2956954929577462 4.278220704225354 3.057857042253521
H 0.9298945070422537 3.612620704225354 4.190337042253521
H 1.2046345070422537 5.193640704225353 3.3918370422535213
N 2.876084507042253 -2.324759295774647 -2.4576629577464786
N 1.4527845070422536 3.504690704225353 2.1388470422535213
C -3.593905492957746 -3.637819295774647 0.8297870422535213
H -2.8952554929577463 -1.8680692957746468 1.7595270422535212
H -5.022615492957747 -1.2402792957746467 1.1579970422535213
H -4.898275492957747 -1.7933092957746464 -0.48931295774647876
H -3.883675492957746 0.07871070422535364 -1.2758929577464788
H -3.8751654929577466 -4.038529295774646 -0.1505529577464788
H -4.4603554929577465 -3.7321892957746465 1.4932570422535212
H -2.7953554929577464 -4.271929295774647 1.2313670422535212
H -5.648775492957746 1.147700704225353 0.9733970422535213
H -6.189795492957747 0.5254307042253537 -0.5943629577464788
H -5.2178854929577465 2.002970704225354 -0.5139729577464787
C 3.6710445070422537 1.0263707042253536 -0.27764295774647874
O 2.7356545070422538 1.6631507042253526 -0.7327029577464788
O 3.650814507042253 0.3883007042253537 0.7790570422535212
O 4.756604507042254 0.8696707042253538 -0.8334829577464786
O 5.021744968138728 -4.795204835530168 -5.487557971215433
H 5.138332140560488 -4.969112820215079 -6.433671495582109
H 5.235248471841757 -3.8546180522104896 -5.394419894947607
O -8.37880825557692 10.052529637895667 -6.334187781500665
H -8.291698419818413 10.028290347616107 -5.369412320462777
H -7.494634248663619 10.301376718911497 -6.642851676488041
O 4.080206737849492 -4.926678309937683 6.26483544584718
H 3.9985945189216086 -4.942699034524796 7.230262884345471
H 3.503449824864523 -5.647034769352344 5.969200571375945
O -4.602558771023701 -6.548228783240866 -9.561249176497196
H -4.24185287329266 -5.916761503364635 -10.201645683895352
H -4.365678244713124 -6.170299687053395 -8.70100551403304
O 4.4302231979420625 6.049010968619794 6.6996060391171
H 4.491730810748907 6.1080935929736695 5.734363368092728
H 3.7406333851767894 6.6896488363938165 6.929847123210075
O -2.645783449942779 -7.993714755772734 6.995705767758815
H -2.4165237511290925 -8.08080585607863 6.058250442077977
H -2.5454110334505335 -8.89174078888476 7.345615136253839
O -6.935035261907929 10.708752532028619 0.02337431377831667
H -7.838584137585767 10.98747843369502 -0.18847152144524237
H -6.908397946393916 9.777866612813247 -0.24440134442974415
O -8.611607586641139 11.600530349051475 3.1565183819815585
H -8.77333454556023 12.264913045966571 3.843109511911595
H -7.6454953358371345 11.557536304318239 3.0953581394714216
O 2.356008220263706 -3.770056609212355 14.048689302545753
H 3.108117476231098 -3.839164445167508 14.655750362899466
H 2.1052036639991663 -2.8350904935490275 14.09224824443347
O -9.511703664140315 -1.2202676440117433 3.1538595947710073
H -8.69604621370286 -1.742402504220832 3.1861932954609697
H -9.286667211724637 -0.40505635870497425 3.6268829553914443
O 8.418521883122528 4.925667625432997 -10.588574244048857
H 9.311774024280243 5.279328259224408 -10.715034219232368
H 8.52919419184337 3.9684128395109624 -10.690441114088916
O -5.016080599212679 1.2211422013736453 7.475118299543791
H -5.576742584398188 0.680605994823666 8.051699694211017
H -5.001223295804206 0.7327389288283633 6.638336698286637
O 9.805428592555245 -4.143377191730982 -0.6493505892006682
H 9.504149762155265 -4.170359166742003 0.27123096409992087
H 9.090731448631592 -3.684857332509949 -1.1161797608119748
O -8.700502227110865 -6.211643918755927 2.6437576208440925
H -9.383235522805897 -6.696500891219664 2.156154995643303
H -9.041235755633208 -5.3054598753631295 2.68490475125426
O 4.924073459416956 6.818046073110336 2.974619976733919
H 3.9611042826771237 6.761207433917867 3.0664191632431583
H 5.05242996999966 7.401486682060089 2.211675937947735
O 5.458027461120292 9.915585900687693 3.632713875244938
H 5.757907818602124 9.058552555982178 3.294286668656211
H 4.759816616685705 10.179857063885343 3.0149563877823407
O 2.619750398094364 3.7289891302813336 -1.479734622041889
H 2.941328127191584 4.260105601403219 -2.223690544897344
H 2.6266688885699487 4.345216961289279 -0.7319530101519061
O -0.2830153227524934 5.737002944040359 -6.494543652999273
H -1.1491303727374271 5.433698679112182 -6.805700526563035
H -0.22992100419787032 5.401972461340741 -5.586855648617105
O -2.7017213862749987 -8.496512933112706 -5.207194049683032
H -2.6733437677271024 -9.333477541932776 -5.694690009920881
H -2.21142576402756 -7.880122515725054 -5.771671684720655
O -0.5455582748968009 8.4160858434419 -4.709925779180177
H -0.9158846360249366 8.695844070420033 -3.8593018448874457
H -0.055668493557931464 7.607517582164929 -4.497352701639081
O 6.3795386429743 -6.115159887631468 0.17663979629873383
H 6.251473861637761 -6.002486499372504 -0.7772320379953028
H 6.579628502211142 -7.058038075679724 0.2761722786018401
O -6.111525222587048 -8.59028785464965 3.765649424901355
H -5.964422435228768 -8.78684491541485 4.7030359240119255
H -5.40099677650209 -7.970478325314522 3.5421602328820043
O -10.175573288833968 5.9502451262262355 -1.5355158094420451
H -9.613763299984992 5.748247140563392 -0.7722768513708074
H -9.552715050799861 6.264658282821153 -2.207939728241091
O -4.8383794937838775 -6.074057253391639 1.9428124487584386
H -4.80823392579063 -6.063550976414658 2.911289717347872
H -3.908605942195093 -6.14940506676632 1.6805038631466966
C 1.0492239318375918 7.066935468910362 -10.57773680913193
O 1.0527417032538104 6.960711540494632 -9.385460683556902
O 1.0457061604213733 7.173159397326092 -11.770012934706953