146

C -5.3564454929577465 1.0091607042253532 -0.0734429577464788
C -4.079135492957747 0.16955070422535368 -0.19788295774647868
C -4.333545492957747 -1.2789292957746463 0.3017270422535212
C -3.1403854929577464 -2.1745492957746464 0.7330270422535212
C -2.905235492957746 0.902300704225353 0.41966704225352136
C -2.7423854929577463 1.056130704225354 1.8024770422535212
C -1.8861754929577463 1.3499307042253532 -0.4326129577464788
C -1.5304554929577463 1.5279207042253526 2.3254170422535214
H -3.5237954929577464 0.7301007042253529 2.484817042253521
C -0.6776454929577462 1.8010507042253527 0.08546704225352131
H -1.9759254929577463 1.2426607042253535 -1.5115229577464788
C -0.4680254929577463 1.8513207042253539 1.4698070422535212
H -1.3950654929577464 1.5446707042253527 3.404047042253521
H 0.1461845070422536 1.9972507042253538 -0.6030529577464789
C -1.8679654929577463 -2.0866092957746467 -0.08765295774647863
C -0.6628654929577462 -1.814079295774647 0.5787970422535212
C -1.8438954929577462 -2.213429295774647 -1.4808029577464787
C 0.5129345070422537 -1.5763292957746469 -0.13022295774647863
H -0.6401854929577462 -1.7032692957746463 1.6609470422535213
C -0.6547954929577462 -1.9962392957746466 -2.1933129577464787
H -2.7578654929577464 -2.4351492957746466 -2.026182957746479
C 0.5308845070422537 -1.645769295774647 -1.5261029577464789
H 1.4044045070422537 -1.2610992957746463 0.41551704225352126
H -0.6795654929577464 -2.0467992957746466 -3.2793129577464786
C 1.7843245070422535 -1.2521692957746469 -2.2771629577464787
H 1.4981245070422535 -0.9384492957746469 -3.290282957746479
H 2.241984507042254 -0.38631929577464685 -1.8135029577464787
C 0.9385645070422537 2.0647807042253534 1.9815670422535212
H 1.0508945070422537 1.5807407042253532 2.9609770422535213
H 1.6053245070422537 1.5496207042253536 1.3096170422535214
C 3.9676945070422533 -1.6881692957746468 -3.314052957746479
H 4.795084507042254 -2.398849295774647 -3.4044129577464783
H 3.548404507042253 -1.4816192957746468 -4.303802957746479
H 4.307714507042253 -0.7637192957746466 -2.851282957746479
C 2.344694507042253 -3.565079295774647 -3.101282957746479
H 1.6334345070422536 -4.047909295774646 -2.4251929577464786
H 1.8561845070422536 -3.293109295774647 -4.041792957746479
H 3.1808045070422537 -4.243519295774647 -3.298122957746479
C 3.5156645070422536 -2.648489295774647 -1.1110629577464786
H 3.9311845070422535 -1.748249295774647 -0.6771029577464787
H 2.767184507042254 -3.1044092957746465 -0.45972295774647876
H 4.319224507042254 -3.371819295774647 -1.2863129577464787
C 2.963994507042253 3.381090704225353 2.401027042253521
H 3.3337945070422537 4.369820704225353 2.6912870422535216
H 3.120994507042253 2.671350704225353 3.2183370422535216
H 3.4665445070422534 3.0664207042253535 1.4881370422535212
C 1.2973745070422538 4.282440704225354 0.8488370422535213
H 1.7592145070422538 3.7367207042253527 0.02653704225352116
H 0.23311450704225378 4.4484607042253534 0.6605570422535213
H 1.7921845070422535 5.251370704225354 0.9736770422535213
C 0.7724845070422537 4.194670704225353 3.2772470422535216
H -0.2956954929577462 4.278220704225354 3.057857042253521
H 0.9298945070422537 3.612620704225354 4.190337042253521
H 1.2046345070422537 5.193640704225353 3.3918370422535213
N 2.876084507042253 -2.324759295774647 -2.4576629577464786
N 1.4527845070422536 3.504690704225353 2.1388470422535213
C -3.593905492957746 -3.637819295774647 0.8297870422535213
H -2.8952554929577463 -1.8680692957746468 1.7595270422535212
H -5.022615492957747 -1.2402792957746467 1.1579970422535213
H -4.898275492957747 -1.7933092957746464 -0.48931295774647876
H -3.883675492957746 0.07871070422535364 -1.2758929577464788
H -3.8751654929577466 -4.038529295774646 -0.1505529577464788
H -4.4603554929577465 -3.7321892957746465 1.4932570422535212
H -2.7953554929577464 -4.271929295774647 1.2313670422535212
H -5.648775492957746 1.147700704225353 0.9733970422535213
H -6.189795492957747 0.5254307042253537 -0.5943629577464788
H -5.2178854929577465 2.002970704225354 -0.5139729577464787
C 3.6710445070422537 1.0263707042253536 -0.27764295774647874
O 2.7356545070422538 1.6631507042253526 -0.7327029577464788
O 3.650814507042253 0.3883007042253537 0.7790570422535212
O 4.756604507042254 0.8696707042253538 -0.8334829577464786
O 0.6238746033594795 8.275954796527735 11.972906404443252
H 0.6123888061689566 8.841250719145616 11.185965521508262
H 1.5447460925540266 8.31052834416542 12.27251000003643
O 6.4834924496107496 8.717612467386214 -2.4107470241384137
H 5.524893320659954 8.627137654388687 -2.5196936858029284
H 6.577703975636633 9.307372732000434 -1.6476815204324455
O -2.044177240944142 5.221064062007101 1.0636801420014803
H -2.543234441628941 5.643719451941052 1.7787127906997289
H -1.6031689119021761 5.959688241334984 0.6176892006945702
O 6.6811982702429304 -5.466411137408677 -3.6307118764504764
H 6.260864077990482 -6.031091007724232 -4.296612145097287
H 6.320873435081971 -5.787444278051282 -2.790434731649208
O 2.7597007570991297 7.484320323446539 3.2940305318289056
H 3.275299200842505 7.943484782501573 2.6141087707047967
H 1.9174987716083092 7.28844256426998 2.8566637939586266
O -7.248323635689339 3.6675559305164978 3.160510611528874
H -6.712437949268338 3.8409164360613772 2.3720056824977878
H -8.116890641640094 3.426575662555429 2.8048677978419483
O 5.3351570902651595 -10.684735077594302 3.89279119397741
H 5.690126701306157 -10.966456976118863 4.749293794107219
H 5.05213180547359 -9.770727898979551 4.0459235220775005
O 7.263670840415925 6.213340445371309 -1.5141425981491552
H 7.74357693380599 6.774482936430307 -2.1416588155931273
H 7.489733302348586 6.584398158928293 -0.6480168100474457
O 3.2867687967782344 1.9016095244020674 -8.922931377118873
H 2.900041727487346 1.862576529769266 -9.810560779576722
H 3.2459765743409643 0.9856543152825081 -8.609364807192533
O -11.388947419111323 -3.857644296460732 -3.663258894116762
H -11.554334188396831 -3.0259732627673963 -4.132234229460488
H -10.782798410806363 -3.6075137222338034 -2.949830537610083
O 0.2583971644514076 -3.287369387941718 3.7249697291371726
H 0.9981374328671013 -3.702715170619832 3.256739472750656
H 0.5462629726010357 -2.3707452060776735 3.851046412232951
O -0.5565061659387602 10.054508165167947 -1.6605349066418706
H -0.20416692920817425 10.583771151626516 -0.9292995749427881
H -1.517438113709665 10.114561637362929 -1.551148817350126
O 0.19889468213220995 9.12930988410025 8.311552466346262
H 0.09079306696109501 9.971317880770222 8.778782528779342
H 0.9440228171863465 9.287903063409056 7.712725103805547
O -8.571073144821934 -5.895022339089609 -2.152652130492834
H -7.929890954286014 -5.408662770040877 -2.6923808818432624
H -8.180743625219344 -5.891710393474307 -1.2657508724922302
O -1.5204312280633463 -7.370323116664194 7.884192593933126
H -2.474954553272763 -7.515559263667396 7.8019792122071365
H -1.1316983335049535 -8.023070700610239 7.282720007158921
O 2.892819642698449 -1.7886274285514197 6.179405973697133
H 2.8761664404958216 -1.9250709928365228 5.220201521287963
H 3.816292196461871 -1.9522569598883037 6.423097916978265
O 5.819345125295376 -0.4860007890278313 -13.13510850248276
H 6.2914935883569125 -0.6698109978520828 -12.309120008095208
H 5.215814406484937 -1.2378786559758597 -13.23202232474687
O 11.11163905694416 -12.702238352596012 -2.6194884112575005
H 11.796980465906708 -12.829172054650213 -3.2926617510029548
H 10.629235657690055 -11.918020876504723 -2.92156763080279
O 8.84675402367682 6.1600516772182665 4.424710098574961
H 8.700394834517507 6.156776842111873 3.466829302179264
H 9.802102559726933 6.026102191674196 4.515971559714849
O -0.8566215270896551 6.471442510114155 8.918152935850783
H -0.9804046945940592 7.398774156601799 9.170543707799943
H -0.6111684223172393 6.514491760486661 7.981744115035886
O 1.2040857529826234 -1.3210659607904636 8.221716002439251
H 0.5849602151693256 -1.6718628781099025 7.563998397287486
H 0.6426411327639729 -1.1111120990232264 8.983070885957154
O -8.184835905545752 8.8231327285056 0.23860308042389722
H -7.246280995439913 8.761859919769078 0.4716860710640556
H -8.529780698865158 7.936248524983842 0.4213910543319388
O 7.327415708498913 2.2870683999399004 -3.8705382066521263
H 8.052421875062786 2.504938482734102 -3.265669590862212
H 6.697554450767804 1.8025609186923148 -3.3160210825481875
O -2.749888219581471 -9.849278872233281 9.98206603473425
H -2.8958764111014528 -9.843771336657904 10.939993209361116
H -2.032998077520728 -10.48935431198864 9.858235909408828
C -6.366990255793473 -4.442917189364022 -5.233802062085688
O -6.660415669514895 -3.357070092526504 -5.643260077237361
O -6.073564842072052 -5.52876428620154 -4.824344046934016