146

C -5.3564454929577465 1.0091607042253532 -0.0734429577464788
C -4.079135492957747 0.16955070422535368 -0.19788295774647868
C -4.333545492957747 -1.2789292957746463 0.3017270422535212
C -3.1403854929577464 -2.1745492957746464 0.7330270422535212
C -2.905235492957746 0.902300704225353 0.41966704225352136
C -2.7423854929577463 1.056130704225354 1.8024770422535212
C -1.8861754929577463 1.3499307042253532 -0.4326129577464788
C -1.5304554929577463 1.5279207042253526 2.3254170422535214
H -3.5237954929577464 0.7301007042253529 2.484817042253521
C -0.6776454929577462 1.8010507042253527 0.08546704225352131
H -1.9759254929577463 1.2426607042253535 -1.5115229577464788
C -0.4680254929577463 1.8513207042253539 1.4698070422535212
H -1.3950654929577464 1.5446707042253527 3.404047042253521
H 0.1461845070422536 1.9972507042253538 -0.6030529577464789
C -1.8679654929577463 -2.0866092957746467 -0.08765295774647863
C -0.6628654929577462 -1.814079295774647 0.5787970422535212
C -1.8438954929577462 -2.213429295774647 -1.4808029577464787
C 0.5129345070422537 -1.5763292957746469 -0.13022295774647863
H -0.6401854929577462 -1.7032692957746463 1.6609470422535213
C -0.6547954929577462 -1.9962392957746466 -2.1933129577464787
H -2.7578654929577464 -2.4351492957746466 -2.026182957746479
C 0.5308845070422537 -1.645769295774647 -1.5261029577464789
H 1.4044045070422537 -1.2610992957746463 0.41551704225352126
H -0.6795654929577464 -2.0467992957746466 -3.2793129577464786
C 1.7843245070422535 -1.2521692957746469 -2.2771629577464787
H 1.4981245070422535 -0.9384492957746469 -3.290282957746479
H 2.241984507042254 -0.38631929577464685 -1.8135029577464787
C 0.9385645070422537 2.0647807042253534 1.9815670422535212
H 1.0508945070422537 1.5807407042253532 2.9609770422535213
H 1.6053245070422537 1.5496207042253536 1.3096170422535214
C 3.9676945070422533 -1.6881692957746468 -3.314052957746479
H 4.795084507042254 -2.398849295774647 -3.4044129577464783
H 3.548404507042253 -1.4816192957746468 -4.303802957746479
H 4.307714507042253 -0.7637192957746466 -2.851282957746479
C 2.344694507042253 -3.565079295774647 -3.101282957746479
H 1.6334345070422536 -4.047909295774646 -2.4251929577464786
H 1.8561845070422536 -3.293109295774647 -4.041792957746479
H 3.1808045070422537 -4.243519295774647 -3.298122957746479
C 3.5156645070422536 -2.648489295774647 -1.1110629577464786
H 3.9311845070422535 -1.748249295774647 -0.6771029577464787
H 2.767184507042254 -3.1044092957746465 -0.45972295774647876
H 4.319224507042254 -3.371819295774647 -1.2863129577464787
C 2.963994507042253 3.381090704225353 2.401027042253521
H 3.3337945070422537 4.369820704225353 2.6912870422535216
H 3.120994507042253 2.671350704225353 3.2183370422535216
H 3.4665445070422534 3.0664207042253535 1.4881370422535212
C 1.2973745070422538 4.282440704225354 0.8488370422535213
H 1.7592145070422538 3.7367207042253527 0.02653704225352116
H 0.23311450704225378 4.4484607042253534 0.6605570422535213
H 1.7921845070422535 5.251370704225354 0.9736770422535213
C 0.7724845070422537 4.194670704225353 3.2772470422535216
H -0.2956954929577462 4.278220704225354 3.057857042253521
H 0.9298945070422537 3.612620704225354 4.190337042253521
H 1.2046345070422537 5.193640704225353 3.3918370422535213
N 2.876084507042253 -2.324759295774647 -2.4576629577464786
N 1.4527845070422536 3.504690704225353 2.1388470422535213
C -3.593905492957746 -3.637819295774647 0.8297870422535213
H -2.8952554929577463 -1.8680692957746468 1.7595270422535212
H -5.022615492957747 -1.2402792957746467 1.1579970422535213
H -4.898275492957747 -1.7933092957746464 -0.48931295774647876
H -3.883675492957746 0.07871070422535364 -1.2758929577464788
H -3.8751654929577466 -4.038529295774646 -0.1505529577464788
H -4.4603554929577465 -3.7321892957746465 1.4932570422535212
H -2.7953554929577464 -4.271929295774647 1.2313670422535212
H -5.648775492957746 1.147700704225353 0.9733970422535213
H -6.189795492957747 0.5254307042253537 -0.5943629577464788
H -5.2178854929577465 2.002970704225354 -0.5139729577464787
C 3.6710445070422537 1.0263707042253536 -0.27764295774647874
O 2.7356545070422538 1.6631507042253526 -0.7327029577464788
O 3.650814507042253 0.3883007042253537 0.7790570422535212
O 4.756604507042254 0.8696707042253538 -0.8334829577464786
O -5.590182318188656 -2.5577914931990766 -5.099038045419912
H -6.392045766797542 -2.046011901845318 -5.283602442200135
H -5.525958126103928 -3.1701631723516632 -5.847261357020737
O 9.90788873170374 -10.058900707203863 0.01499582125549459
H 10.031978736892672 -11.00795135086775 -0.13623877555811958
H 10.097024761553232 -9.945554799913737 0.9585752889281167
O 2.836481271898392 -1.9285780740404457 -6.608307427204645
H 2.765347534164065 -1.756964311124812 -5.657278476733692
H 3.407527239242958 -1.2160680376084385 -6.932649677710446
O 7.1156594907163395 -6.005579592554279 -4.091644116626515
H 7.054801455434701 -6.2041002712150135 -5.038139334039546
H 6.352439235734842 -6.462327381580696 -3.7071467253408827
O -4.307069359128225 9.596122981528952 -3.532020268791933
H -4.38650467831321 9.394665933127241 -2.587524400820427
H -5.096456467062624 9.193759639313688 -3.9243640962804354
O 5.302041602918814 10.164219768636098 1.0406709363173352
H 5.508217253078929 11.0183527999349 0.6321177292250697
H 4.892601714471517 9.655186492184942 0.3249852193202276
O -3.8751160162431595 3.9700749756946614 -2.9928813034121715
H -3.2112807592549695 3.384705107545826 -3.3873838077677716
H -4.3919025688704325 4.282256298632968 -3.750797146320938
O -3.7025613974403195 -8.274893909739644 -4.095027706077327
H -4.0460079974833985 -9.047875628886192 -4.567797260600564
H -3.002337125719561 -7.938384504708519 -4.674173053912161
O 11.804734825740582 -1.7979406524570631 4.8141182969852085
H 12.065504127436538 -2.2487614567246466 5.631264141148007
H 11.918677432661351 -0.8577108943779601 5.0189280346702345
O -0.9552523634965525 1.044041606816061 -3.722142135662419
H -1.088801030618463 1.3264142938240353 -4.6394195070402695
H -1.8529319969453937 0.888560303842436 -3.3920530803807
O 1.6621584658696893 13.698942413509506 -4.6636051701242565
H 1.8138349427809501 13.758417821261549 -5.618814193911469
H 0.7469056635212539 13.389149064262222 -4.590788050876887
O 4.538095940111928 -2.1631963453352956 7.7162043940736025
H 4.112253656623167 -2.377630333916782 6.872614582000154
H 4.962429106617339 -1.3074086347009133 7.553321913644751
O -7.547220403470984 5.989708649658843 3.8865408095351532
H -7.018544311609636 6.4522337297477765 3.2190533586546595
H -8.3880269453208 5.813485658556267 3.438264375970535
O 10.663071966907678 6.351438090647923 3.301394541128812
H 11.208278977369822 6.769762389000995 2.618224390982934
H 10.009191446554954 5.841949585099943 2.7995741827158285
O 5.981857366361078 3.609382993926503 -0.16627939595726637
H 5.581026782792124 3.965073286973973 0.6410536304993357
H 5.266202853340328 3.6457950490874023 -0.8185636319556462
O 6.485529838473192 8.7753619991487 3.8316519691463817
H 7.170318629422548 8.757767127075693 4.517014711908823
H 6.968314039101804 9.007945082928611 3.02431903344834
O -7.342812051651466 2.5450215552070556 -1.824654817786331
H -8.191110492601041 2.9837562677156497 -1.9885723703013833
H -6.929461578365927 3.085155333089357 -1.134467283470321
O -2.1155344762164288 -3.738188494549357 2.582957673780787
H -2.9722225135441804 -4.116605778024585 2.83166095716634
H -1.7601119351579952 -3.395493465291362 3.4167423453413925
O -4.269385501180045 -2.022779704041894 11.484258923049318
H -3.7448202519892964 -2.830132588404547 11.374805844733762
H -5.184760746132973 -2.322096319635654 11.377209080186915
O 7.676618548452137 -0.06277964000103786 7.145832516567005
H 7.498889637600808 0.10137090351640232 6.207517862407469
H 7.020414616357289 -0.7308283962795996 7.394969432815735
O -6.799212618720854 6.600798346010925 11.918741893231541
H -6.819727982288982 6.514858756984188 12.883708661465343
H -7.331329340876483 7.3912761929914765 11.742791582815965
O 4.476547426426395 -3.5163404491073527 -5.209655872848396
H 4.200719141025208 -3.9690022819867243 -6.020817619312645
H 3.8410331344736353 -3.820325144779395 -4.544316234903267
O -7.0248077504275885 4.3542542840622 1.340649231219281
H -7.090109321335431 4.278190708947112 0.37684562348704176
H -7.185231599152157 3.452850708069456 1.657978281650991
O -5.54401295823278 4.169406323665753 2.553323163138273
H -5.808532549337173 5.09822690696796 2.6326268002308666
H -4.6312946144907485 4.212695252713843 2.2307813241178573
C -2.707415169384081 -3.365526585543775 7.235868788428609
O -3.700472867508335 -2.7079488354613104 7.116511475738332
O -1.7143574712598273 -4.023104335626238 7.355226101118885