146

C -5.3564454929577465 1.0091607042253532 -0.0734429577464788
C -4.079135492957747 0.16955070422535368 -0.19788295774647868
C -4.333545492957747 -1.2789292957746463 0.3017270422535212
C -3.1403854929577464 -2.1745492957746464 0.7330270422535212
C -2.905235492957746 0.902300704225353 0.41966704225352136
C -2.7423854929577463 1.056130704225354 1.8024770422535212
C -1.8861754929577463 1.3499307042253532 -0.4326129577464788
C -1.5304554929577463 1.5279207042253526 2.3254170422535214
H -3.5237954929577464 0.7301007042253529 2.484817042253521
C -0.6776454929577462 1.8010507042253527 0.08546704225352131
H -1.9759254929577463 1.2426607042253535 -1.5115229577464788
C -0.4680254929577463 1.8513207042253539 1.4698070422535212
H -1.3950654929577464 1.5446707042253527 3.404047042253521
H 0.1461845070422536 1.9972507042253538 -0.6030529577464789
C -1.8679654929577463 -2.0866092957746467 -0.08765295774647863
C -0.6628654929577462 -1.814079295774647 0.5787970422535212
C -1.8438954929577462 -2.213429295774647 -1.4808029577464787
C 0.5129345070422537 -1.5763292957746469 -0.13022295774647863
H -0.6401854929577462 -1.7032692957746463 1.6609470422535213
C -0.6547954929577462 -1.9962392957746466 -2.1933129577464787
H -2.7578654929577464 -2.4351492957746466 -2.026182957746479
C 0.5308845070422537 -1.645769295774647 -1.5261029577464789
H 1.4044045070422537 -1.2610992957746463 0.41551704225352126
H -0.6795654929577464 -2.0467992957746466 -3.2793129577464786
C 1.7843245070422535 -1.2521692957746469 -2.2771629577464787
H 1.4981245070422535 -0.9384492957746469 -3.290282957746479
H 2.241984507042254 -0.38631929577464685 -1.8135029577464787
C 0.9385645070422537 2.0647807042253534 1.9815670422535212
H 1.0508945070422537 1.5807407042253532 2.9609770422535213
H 1.6053245070422537 1.5496207042253536 1.3096170422535214
C 3.9676945070422533 -1.6881692957746468 -3.314052957746479
H 4.795084507042254 -2.398849295774647 -3.4044129577464783
H 3.548404507042253 -1.4816192957746468 -4.303802957746479
H 4.307714507042253 -0.7637192957746466 -2.851282957746479
C 2.344694507042253 -3.565079295774647 -3.101282957746479
H 1.6334345070422536 -4.047909295774646 -2.4251929577464786
H 1.8561845070422536 -3.293109295774647 -4.041792957746479
H 3.1808045070422537 -4.243519295774647 -3.298122957746479
C 3.5156645070422536 -2.648489295774647 -1.1110629577464786
H 3.9311845070422535 -1.748249295774647 -0.6771029577464787
H 2.767184507042254 -3.1044092957746465 -0.45972295774647876
H 4.319224507042254 -3.371819295774647 -1.2863129577464787
C 2.963994507042253 3.381090704225353 2.401027042253521
H 3.3337945070422537 4.369820704225353 2.6912870422535216
H 3.120994507042253 2.671350704225353 3.2183370422535216
H 3.4665445070422534 3.0664207042253535 1.4881370422535212
C 1.2973745070422538 4.282440704225354 0.8488370422535213
H 1.7592145070422538 3.7367207042253527 0.02653704225352116
H 0.23311450704225378 4.4484607042253534 0.6605570422535213
H 1.7921845070422535 5.251370704225354 0.9736770422535213
C 0.7724845070422537 4.194670704225353 3.2772470422535216
H -0.2956954929577462 4.278220704225354 3.057857042253521
H 0.9298945070422537 3.612620704225354 4.190337042253521
H 1.2046345070422537 5.193640704225353 3.3918370422535213
N 2.876084507042253 -2.324759295774647 -2.4576629577464786
N 1.4527845070422536 3.504690704225353 2.1388470422535213
C -3.593905492957746 -3.637819295774647 0.8297870422535213
H -2.8952554929577463 -1.8680692957746468 1.7595270422535212
H -5.022615492957747 -1.2402792957746467 1.1579970422535213
H -4.898275492957747 -1.7933092957746464 -0.48931295774647876
H -3.883675492957746 0.07871070422535364 -1.2758929577464788
H -3.8751654929577466 -4.038529295774646 -0.1505529577464788
H -4.4603554929577465 -3.7321892957746465 1.4932570422535212
H -2.7953554929577464 -4.271929295774647 1.2313670422535212
H -5.648775492957746 1.147700704225353 0.9733970422535213
H -6.189795492957747 0.5254307042253537 -0.5943629577464788
H -5.2178854929577465 2.002970704225354 -0.5139729577464787
C 3.6710445070422537 1.0263707042253536 -0.27764295774647874
O 2.7356545070422538 1.6631507042253526 -0.7327029577464788
O 3.650814507042253 0.3883007042253537 0.7790570422535212
O 4.756604507042254 0.8696707042253538 -0.8334829577464786
O -5.749459776562434 3.5574594516022184 0.3074267532054069
H -5.552903118450981 3.7794619184890097 1.22994924168373
H -6.274334804397264 2.7452443014029626 0.3688653342614856
O 2.66593409379769 -0.16517672803346306 8.968118225769599
H 2.398261398318011 0.6974543135630391 9.319097386217592
H 3.2141120059880635 -0.5442003623137537 9.671541288757702
O 5.888722615581675 14.00875171833945 8.48025411507407
H 5.655738141381125 14.187899846017046 9.403612951080477
H 5.28117700520409 13.300620852022698 8.21871835885628
O 4.494513624411101 1.953773230840072 11.006797323273183
H 5.176568077669008 2.5316196884213413 11.380779343097444
H 4.756746720541292 1.8518752853041707 10.07953654210667
O -7.99906434084624 -7.67653348444712 -7.422716769431938
H -7.991641265125786 -7.750642015916319 -8.388853499098255
H -7.356560483514205 -8.341111496736008 -7.13205063243692
O 8.906938920053397 3.2802095938461266 -7.909498976670559
H 9.112311185325137 2.7631937028675106 -7.116098599790927
H 8.497606410089961 4.087433854405891 -7.563380740007454
O 0.8205219299611366 8.376421343423004 7.089837871063133
H 1.704277405014753 8.158507568414134 6.757486845979503
H 0.2321125080541131 7.787857486040148 6.593522565744372
O -5.432504206215829 1.2256138302807558 -7.1231903442508955
H -5.988980119113975 1.9228170892191876 -6.744759992680352
H -6.067724725400441 0.5918325540455789 -7.488947272005576
O 4.460527454848053 2.804478199978169 -10.822880310985584
H 4.07576451627094 3.314896553130306 -10.094596065128949
H 4.009586753116306 1.9482810384867066 -10.772473481332836
O -1.2360328362048856 9.330889596054957 -7.446951752498615
H -1.0095196693981716 9.142050881223213 -8.369989715934514
H -0.4217969275980318 9.704781840925236 -7.077917311475782
O 6.3136642135376935 -7.788434180085274 -10.805337074840548
H 6.1857625450242075 -8.424662850162417 -11.524935295699478
H 7.247045398665068 -7.8904579031001045 -10.565852905233433
O -0.4857754871571469 2.746233474942959 8.76617389647398
H 0.41626858322561544 2.62597777343096 9.099073908851805
H -1.0415358464994533 2.323733411548886 9.438175431974988
O 1.3163734464959465 5.979325216536937 11.031704511968933
H 1.9434599091068847 5.471729853420447 10.494976580282179
H 0.8698796142682079 6.552496004813798 10.390548953973317
O -0.8215349864786683 7.788702667103056 8.134304900100291
H -0.9496240164510659 6.926855753233191 8.558310152843365
H -1.6114072685959222 7.898435332758739 7.583830137435387
O -7.30635320861247 8.837572939860602 2.526935174321585
H -7.1071745616155155 8.34623750781347 1.7158342455244828
H -6.643183372624553 9.543940427752327 2.5415188976215677
O 2.952766752698527 -6.598080587779505 -15.645812010557801
H 3.438201891984212 -7.39006185909716 -15.921648462697034
H 3.0631334062816133 -6.579288317286861 -14.683300713664824
O 2.0079119203208333 -4.057348335978672 3.292636070066814
H 1.7297582728875849 -3.591656082063154 4.095586024897541
H 2.3506497189972757 -4.902814718166708 3.619254107303429
O 3.6436687006903563 -2.5810455562117047 5.0980074167545455
H 3.7694146362632477 -1.9303864232708325 4.391043478984357
H 4.263759799396636 -3.2915432813368373 4.875202667708999
O 8.698538533523465 -9.999751496936796 -0.2668161698983571
H 9.576151501307603 -10.113608514314919 -0.6615305163197556
H 8.155308823441434 -10.671038036610373 -0.7064043954427492
O 0.632912881132697 -1.2653874540107959 4.978341397820166
H -0.019518751914215482 -0.5945512299820526 5.229894735366296
H 1.4844346790801033 -0.8559377959868604 5.1933380244553256
O -0.05650013597208736 -7.8299234136510645 -7.991428215619076
H -0.06100393747749866 -7.791783572411151 -8.959670140543935
H -0.7406912795592833 -7.195895849124686 -7.729028766767532
O 10.336092814282457 -1.3846227892696428 -0.6349564401876049
H 11.05662551732983 -1.4121995282627569 0.012376166905344377
H 10.773877024777805 -1.5654021104029145 -1.4803118485168816
O 5.106915557518063 -5.874342985889542 7.728651490077553
H 4.974652156974695 -6.785797428083889 7.427446328134904
H 4.7146861713324055 -5.336011095824718 7.024864001518928
O -4.386351596743532 -0.7118339243766973 13.22321876988118
H -4.667608972334983 -1.4068381496196016 13.837084205029567
H -5.169991326570193 -0.1492655731225847 13.13163510155311
C 4.083502546267891 -6.932967921423847 12.930458715591577
O 4.294136836851623 -6.96555685954208 11.752583758712614
O 3.872868255684158 -6.900378983305615 14.108333672470536