146

C -5.3564454929577465 1.0091607042253532 -0.0734429577464788
C -4.079135492957747 0.16955070422535368 -0.19788295774647868
C -4.333545492957747 -1.2789292957746463 0.3017270422535212
C -3.1403854929577464 -2.1745492957746464 0.7330270422535212
C -2.905235492957746 0.902300704225353 0.41966704225352136
C -2.7423854929577463 1.056130704225354 1.8024770422535212
C -1.8861754929577463 1.3499307042253532 -0.4326129577464788
C -1.5304554929577463 1.5279207042253526 2.3254170422535214
H -3.5237954929577464 0.7301007042253529 2.484817042253521
C -0.6776454929577462 1.8010507042253527 0.08546704225352131
H -1.9759254929577463 1.2426607042253535 -1.5115229577464788
C -0.4680254929577463 1.8513207042253539 1.4698070422535212
H -1.3950654929577464 1.5446707042253527 3.404047042253521
H 0.1461845070422536 1.9972507042253538 -0.6030529577464789
C -1.8679654929577463 -2.0866092957746467 -0.08765295774647863
C -0.6628654929577462 -1.814079295774647 0.5787970422535212
C -1.8438954929577462 -2.213429295774647 -1.4808029577464787
C 0.5129345070422537 -1.5763292957746469 -0.13022295774647863
H -0.6401854929577462 -1.7032692957746463 1.6609470422535213
C -0.6547954929577462 -1.9962392957746466 -2.1933129577464787
H -2.7578654929577464 -2.4351492957746466 -2.026182957746479
C 0.5308845070422537 -1.645769295774647 -1.5261029577464789
H 1.4044045070422537 -1.2610992957746463 0.41551704225352126
H -0.6795654929577464 -2.0467992957746466 -3.2793129577464786
C 1.7843245070422535 -1.2521692957746469 -2.2771629577464787
H 1.4981245070422535 -0.9384492957746469 -3.290282957746479
H 2.241984507042254 -0.38631929577464685 -1.8135029577464787
C 0.9385645070422537 2.0647807042253534 1.9815670422535212
H 1.0508945070422537 1.5807407042253532 2.9609770422535213
H 1.6053245070422537 1.5496207042253536 1.3096170422535214
C 3.9676945070422533 -1.6881692957746468 -3.314052957746479
H 4.795084507042254 -2.398849295774647 -3.4044129577464783
H 3.548404507042253 -1.4816192957746468 -4.303802957746479
H 4.307714507042253 -0.7637192957746466 -2.851282957746479
C 2.344694507042253 -3.565079295774647 -3.101282957746479
H 1.6334345070422536 -4.047909295774646 -2.4251929577464786
H 1.8561845070422536 -3.293109295774647 -4.041792957746479
H 3.1808045070422537 -4.243519295774647 -3.298122957746479
C 3.5156645070422536 -2.648489295774647 -1.1110629577464786
H 3.9311845070422535 -1.748249295774647 -0.6771029577464787
H 2.767184507042254 -3.1044092957746465 -0.45972295774647876
H 4.319224507042254 -3.371819295774647 -1.2863129577464787
C 2.963994507042253 3.381090704225353 2.401027042253521
H 3.3337945070422537 4.369820704225353 2.6912870422535216
H 3.120994507042253 2.671350704225353 3.2183370422535216
H 3.4665445070422534 3.0664207042253535 1.4881370422535212
C 1.2973745070422538 4.282440704225354 0.8488370422535213
H 1.7592145070422538 3.7367207042253527 0.02653704225352116
H 0.23311450704225378 4.4484607042253534 0.6605570422535213
H 1.7921845070422535 5.251370704225354 0.9736770422535213
C 0.7724845070422537 4.194670704225353 3.2772470422535216
H -0.2956954929577462 4.278220704225354 3.057857042253521
H 0.9298945070422537 3.612620704225354 4.190337042253521
H 1.2046345070422537 5.193640704225353 3.3918370422535213
N 2.876084507042253 -2.324759295774647 -2.4576629577464786
N 1.4527845070422536 3.504690704225353 2.1388470422535213
C -3.593905492957746 -3.637819295774647 0.8297870422535213
H -2.8952554929577463 -1.8680692957746468 1.7595270422535212
H -5.022615492957747 -1.2402792957746467 1.1579970422535213
H -4.898275492957747 -1.7933092957746464 -0.48931295774647876
H -3.883675492957746 0.07871070422535364 -1.2758929577464788
H -3.8751654929577466 -4.038529295774646 -0.1505529577464788
H -4.4603554929577465 -3.7321892957746465 1.4932570422535212
H -2.7953554929577464 -4.271929295774647 1.2313670422535212
H -5.648775492957746 1.147700704225353 0.9733970422535213
H -6.189795492957747 0.5254307042253537 -0.5943629577464788
H -5.2178854929577465 2.002970704225354 -0.5139729577464787
C 3.6710445070422537 1.0263707042253536 -0.27764295774647874
O 2.7356545070422538 1.6631507042253526 -0.7327029577464788
O 3.650814507042253 0.3883007042253537 0.7790570422535212
O 4.756604507042254 0.8696707042253538 -0.8334829577464786
O 4.822709477331751 -5.1376057125547785 -10.378562347141736
H 5.483530621978405 -5.286872683204177 -9.685740477422657
H 4.04237718174402 -5.619242234688156 -10.065401504586276
O 8.293406953138044 -0.04627591338034254 -6.790716096960233
H 8.986539766921418 0.028383781782451045 -6.117692925535249
H 8.44426444579454 0.7173942975372296 -7.367787817083916
O -5.4436197216215465 -6.056121082526777 9.375218652323026
H -4.985464798278706 -6.355493763322077 8.57557034143245
H -4.980713043722617 -5.240395634356917 9.61867572259345
O -7.8585666617763685 -11.353544653839366 -0.4238112107905523
H -7.941031187564502 -11.099010606986198 -1.3551432557020806
H -8.708552082827214 -11.097789751773002 -0.03512604465986363
O -7.65319368559596 4.597741731810929 -0.6098937588106993
H -8.48871549198252 5.065662604882154 -0.7579502497079449
H -7.73738228496822 3.7936837413738353 -1.1440893896894968
O 12.824105485848122 5.191717661181213 -3.055999968243948
H 13.387564122633982 5.9762932472758195 -3.1329601607835107
H 12.349173974965224 5.160925866615345 -3.9000697933519772
O 10.421958049071554 -7.238517046341493 8.939317970261296
H 10.286396647498751 -7.620282548028397 8.059064844719918
H 9.683193483122327 -6.620017522612949 9.042503238325182
O 7.928252667245633 11.747316781953401 -0.046893728138652335
H 8.56858010870476 12.271659059423797 0.4571035939490411
H 7.938229986160737 10.882519651071147 0.39012837636532893
O -0.4714005873674152 -7.524396044736061 -12.509034796128663
H -0.8495534237794367 -6.9765612234837135 -13.213197275842651
H -1.221078229639966 -8.051736045052891 -12.1946180328311
O 6.022555178623325 3.7810730688271157 -2.494437256345254
H 5.372350392755708 3.195624033972991 -2.910911170202079
H 5.486448737255312 4.375086733477652 -1.947903090869603
O -5.359774467116881 1.4456561563933008 4.069113276201048
H -4.86365065725953 1.9850107945681041 4.703088903865041
H -5.106646357415141 1.806598884671093 3.2062062990116127
O 9.95637059966848 -3.1230173441109175 4.025341705980823
H 10.721649364354773 -3.5611890955706453 4.426989917034891
H 9.540283558854913 -2.6545537016507152 4.764513766099392
O 3.890401083516248 -0.8507264938922621 2.642652904265024
H 4.045915435060233 -0.7322387536309722 3.5917278743130328
H 4.773883000885417 -1.012877259350882 2.279157683879831
O 1.7043448755398272 8.498429930544056 11.095995720562696
H 1.6923231946030706 8.920097824059543 10.22363167747881
H 0.803517657656525 8.158089842640061 11.203888687831792
O 6.654110844731269 -6.863785893391537 10.970729048044195
H 6.891308156994762 -7.779610743349922 11.180418428208466
H 6.506796740500897 -6.873565469300372 10.013041803224757
O 12.358077706825991 -5.677274718533827 1.889733230753073
H 12.302129694893523 -5.661872852794124 0.9224690685964564
H 11.44517037858999 -5.5300394253831815 2.179360444260108
O -4.544481627129081 5.870434728925337 -4.60206610910249
H -3.931581079387634 6.102829946282541 -3.8884046078095222
H -5.36308817725979 6.332795974132392 -4.367401797129664
O 2.256275400402104 -10.65441352318047 1.7731383164839851
H 2.300352217296933 -11.175863514842924 0.9575927951869531
H 2.9156918905529157 -11.067224006392685 2.3508227820595122
O 5.1034461124465125 1.8639162336097712 -8.223388520573456
H 4.891345740375655 2.3813680901581815 -9.014731913306349
H 4.366108421166944 2.044416679544973 -7.621130550650511
O -2.768402211649185 -9.691800327246137 -9.550357938428863
H -3.572682533471958 -10.18475806719862 -9.328788113205304
H -2.0498992789387023 -10.272985389710005 -9.258914284946231
O 1.7428333985144873 12.573642912082983 -2.7651378910291666
H 1.6091230200363018 11.928855667936675 -3.476009399371872
H 2.020361311992197 12.034530902428898 -2.009295022049481
O -3.5034868652699043 -8.328818870356326 8.113414421954925
H -2.706732402339012 -8.870368903471405 8.009139572001729
H -4.097091438090277 -8.649425356532163 7.417852033345013
O 0.13719368187363687 -4.157140818117496 2.702700215461737
H -0.06972855091971214 -4.048314072319479 3.6430763560963397
H 0.72497232426354 -4.927180701828691 2.679967214244758
O -3.656242823118012 1.1728958241068572 7.736692589341369
H -2.8376310479831357 1.1696626576292615 7.218202796630795
H -4.111690214499589 0.3635619117785382 7.460091366749978
C 5.004325403370577 13.707795581097798 -5.852383041433382
O 4.745762536121678 13.13708650580016 -4.832454292768584
O 5.2628882706194755 14.278504656395437 -6.87231179009818