146

C -5.3564454929577465 1.0091607042253532 -0.0734429577464788
C -4.079135492957747 0.16955070422535368 -0.19788295774647868
C -4.333545492957747 -1.2789292957746463 0.3017270422535212
C -3.1403854929577464 -2.1745492957746464 0.7330270422535212
C -2.905235492957746 0.902300704225353 0.41966704225352136
C -2.7423854929577463 1.056130704225354 1.8024770422535212
C -1.8861754929577463 1.3499307042253532 -0.4326129577464788
C -1.5304554929577463 1.5279207042253526 2.3254170422535214
H -3.5237954929577464 0.7301007042253529 2.484817042253521
C -0.6776454929577462 1.8010507042253527 0.08546704225352131
H -1.9759254929577463 1.2426607042253535 -1.5115229577464788
C -0.4680254929577463 1.8513207042253539 1.4698070422535212
H -1.3950654929577464 1.5446707042253527 3.404047042253521
H 0.1461845070422536 1.9972507042253538 -0.6030529577464789
C -1.8679654929577463 -2.0866092957746467 -0.08765295774647863
C -0.6628654929577462 -1.814079295774647 0.5787970422535212
C -1.8438954929577462 -2.213429295774647 -1.4808029577464787
C 0.5129345070422537 -1.5763292957746469 -0.13022295774647863
H -0.6401854929577462 -1.7032692957746463 1.6609470422535213
C -0.6547954929577462 -1.9962392957746466 -2.1933129577464787
H -2.7578654929577464 -2.4351492957746466 -2.026182957746479
C 0.5308845070422537 -1.645769295774647 -1.5261029577464789
H 1.4044045070422537 -1.2610992957746463 0.41551704225352126
H -0.6795654929577464 -2.0467992957746466 -3.2793129577464786
C 1.7843245070422535 -1.2521692957746469 -2.2771629577464787
H 1.4981245070422535 -0.9384492957746469 -3.290282957746479
H 2.241984507042254 -0.38631929577464685 -1.8135029577464787
C 0.9385645070422537 2.0647807042253534 1.9815670422535212
H 1.0508945070422537 1.5807407042253532 2.9609770422535213
H 1.6053245070422537 1.5496207042253536 1.3096170422535214
C 3.9676945070422533 -1.6881692957746468 -3.314052957746479
H 4.795084507042254 -2.398849295774647 -3.4044129577464783
H 3.548404507042253 -1.4816192957746468 -4.303802957746479
H 4.307714507042253 -0.7637192957746466 -2.851282957746479
C 2.344694507042253 -3.565079295774647 -3.101282957746479
H 1.6334345070422536 -4.047909295774646 -2.4251929577464786
H 1.8561845070422536 -3.293109295774647 -4.041792957746479
H 3.1808045070422537 -4.243519295774647 -3.298122957746479
C 3.5156645070422536 -2.648489295774647 -1.1110629577464786
H 3.9311845070422535 -1.748249295774647 -0.6771029577464787
H 2.767184507042254 -3.1044092957746465 -0.45972295774647876
H 4.319224507042254 -3.371819295774647 -1.2863129577464787
C 2.963994507042253 3.381090704225353 2.401027042253521
H 3.3337945070422537 4.369820704225353 2.6912870422535216
H 3.120994507042253 2.671350704225353 3.2183370422535216
H 3.4665445070422534 3.0664207042253535 1.4881370422535212
C 1.2973745070422538 4.282440704225354 0.8488370422535213
H 1.7592145070422538 3.7367207042253527 0.02653704225352116
H 0.23311450704225378 4.4484607042253534 0.6605570422535213
H 1.7921845070422535 5.251370704225354 0.9736770422535213
C 0.7724845070422537 4.194670704225353 3.2772470422535216
H -0.2956954929577462 4.278220704225354 3.057857042253521
H 0.9298945070422537 3.612620704225354 4.190337042253521
H 1.2046345070422537 5.193640704225353 3.3918370422535213
N 2.876084507042253 -2.324759295774647 -2.4576629577464786
N 1.4527845070422536 3.504690704225353 2.1388470422535213
C -3.593905492957746 -3.637819295774647 0.8297870422535213
H -2.8952554929577463 -1.8680692957746468 1.7595270422535212
H -5.022615492957747 -1.2402792957746467 1.1579970422535213
H -4.898275492957747 -1.7933092957746464 -0.48931295774647876
H -3.883675492957746 0.07871070422535364 -1.2758929577464788
H -3.8751654929577466 -4.038529295774646 -0.1505529577464788
H -4.4603554929577465 -3.7321892957746465 1.4932570422535212
H -2.7953554929577464 -4.271929295774647 1.2313670422535212
H -5.648775492957746 1.147700704225353 0.9733970422535213
H -6.189795492957747 0.5254307042253537 -0.5943629577464788
H -5.2178854929577465 2.002970704225354 -0.5139729577464787
C 3.6710445070422537 1.0263707042253536 -0.27764295774647874
O 2.7356545070422538 1.6631507042253526 -0.7327029577464788
O 3.650814507042253 0.3883007042253537 0.7790570422535212
O 4.756604507042254 0.8696707042253538 -0.8334829577464786
O 5.009802512066673 -0.02064336243947551 12.428447054110478
H 4.840307952819964 -0.7050271882819921 13.093170854053678
H 5.397834564098708 -0.5069219476805875 11.68552969098608
O 8.74346278636174 -6.608137742368211 -0.2882762622909958
H 8.759815707788452 -5.77957501875232 0.2139027415463124
H 9.448436683191892 -7.138631925696268 0.11241023678678363
O -6.596910142323846 10.11422846889083 -1.6438153708094285
H -6.010181115197797 10.182876279266873 -0.8756982679154119
H -6.663595497761831 9.16071020847652 -1.8029314753575716
O -9.528992096388086 -2.759089544090883 4.263838846835494
H -9.423292456740306 -2.9172669565463933 5.213983493332652
H -8.772580810585637 -3.2149502742578484 3.8650971940045804
O 3.3389512440879052 -1.7076692215047538 10.143964463388622
H 3.3279089032322138 -2.492543148530726 9.575793413190482
H 3.593318419833176 -2.051668212467367 11.0134033504992
O -4.626518104261722 5.877328003958426 -3.16371767620251
H -4.457104396622054 5.7775915080091576 -4.112569078656837
H -3.742546027209608 5.87663315246482 -2.7667859081698
O 1.7996354456487156 10.528856714741261 -10.44032408538834
H 1.6690743268837291 11.463885664025439 -10.658594594544669
H 2.6577333583191987 10.313800453312455 -10.835774108767811
O -2.4945018379266357 10.74419022430301 -5.6626794512749115
H -2.3568552333501387 10.55472335978449 -4.722401260313278
H -3.4505426792459337 10.884239716294989 -5.735713647527594
O -2.73618059032388 -0.7331186330035301 5.558232324221537
H -2.222377584551997 -0.7876801844054302 4.738478174937498
H -2.581129690658743 0.17048869435141378 5.87194391272838
O 8.094982535433708 -5.41421726241014 -4.571638784101101
H 8.176910863700346 -4.773549304561574 -5.293995810587023
H 7.144061796974939 -5.4383233992733935 -4.386894128875135
O 4.381776578028557 -9.117657167915098 2.0521689933525864
H 5.193839229661446 -8.846305414337433 2.505919841895362
H 4.68846372925244 -9.4194441988895 1.1839354282850802
O 0.3804308033658622 -11.136454035594028 2.7027963499640033
H 0.7237489750368853 -11.630295280511033 1.9430458549202103
H -0.43420691059095273 -10.73104104128678 2.3696782877907765
O 10.849874608507452 6.564010083893983 0.7171608616121947
H 10.695793601679451 5.887923880692527 1.3940167148597755
H 10.928063509459447 7.3872799373120035 1.2222105507725685
O 2.97423832962001 -5.032769393239551 2.115796715959182
H 2.6824239581207743 -4.12805014604995 1.9279275773249014
H 3.3536759902981834 -4.976294185923211 3.0056279117023137
O 1.835331163689096 -0.09210324447136942 11.254571246556349
H 2.227522332562512 -0.9546231829288607 11.051561887853381
H 2.0813412067328647 0.06524447390519383 12.178520757375685
O 2.656967479464143 12.349440981890266 2.9039960559353597
H 2.971708365924804 12.752056938666403 2.080706360482299
H 2.534898178519649 13.102714856415373 3.501189073329952
O -5.745146323195749 -9.810553412616256 4.193949054266779
H -5.881276626967345 -9.660855927680066 5.141591687488202
H -5.125709011805868 -9.112461137053245 3.9333218562284133
O 10.463793766577663 9.092321170556485 -2.1265106820532225
H 11.337957787054519 8.677952442240278 -2.1822168684004355
H 9.987556086495387 8.737944918998593 -2.892393890317792
O 5.075171561048436 -3.5299558238383466 -7.676295344535257
H 5.121878600318805 -4.413467727508576 -8.07150734518251
H 4.369967534604314 -3.605858753550141 -7.016077220997163
O 4.697400363453679 7.563753103350231 6.35104971952891
H 4.586732620538234 7.954041453042457 5.471052553810451
H 3.7908538402647975 7.4632309391901615 6.678205095622177
O -2.1833711156872075 11.739476461292746 9.163890505519065
H -2.776758739563125 11.917738104927011 9.908928270427467
H -2.731445851496685 11.235852016030831 8.543456426505024
O 2.483422932157248 0.233623625156193 -9.425156376180283
H 2.304545374653222 -0.6921552030909562 -9.201764931646858
H 1.828652440692261 0.4401192257212434 -10.108967106392948
O -1.4398693597615906 -6.410508540513765 5.435249497784947
H -2.3433198474288877 -6.59973279647133 5.730103282212126
H -0.8868516917599307 -6.6934677738966055 6.178934562460446
O -3.655287251107523 10.366975202817642 7.188160276273891
H -4.549644477022273 10.51231819368808 7.531624865946407
H -3.5966537380991754 9.404994310003113 7.087577885608009
C -3.0820806038870288 -1.5420416211502053 -9.319195713308446
O -2.5362348734131865 -0.5705466559711667 -9.756309232265773
O -3.62792633436087 -2.513536586329244 -8.882082194351119