146

C -5.3564454929577465 1.0091607042253532 -0.0734429577464788
C -4.079135492957747 0.16955070422535368 -0.19788295774647868
C -4.333545492957747 -1.2789292957746463 0.3017270422535212
C -3.1403854929577464 -2.1745492957746464 0.7330270422535212
C -2.905235492957746 0.902300704225353 0.41966704225352136
C -2.7423854929577463 1.056130704225354 1.8024770422535212
C -1.8861754929577463 1.3499307042253532 -0.4326129577464788
C -1.5304554929577463 1.5279207042253526 2.3254170422535214
H -3.5237954929577464 0.7301007042253529 2.484817042253521
C -0.6776454929577462 1.8010507042253527 0.08546704225352131
H -1.9759254929577463 1.2426607042253535 -1.5115229577464788
C -0.4680254929577463 1.8513207042253539 1.4698070422535212
H -1.3950654929577464 1.5446707042253527 3.404047042253521
H 0.1461845070422536 1.9972507042253538 -0.6030529577464789
C -1.8679654929577463 -2.0866092957746467 -0.08765295774647863
C -0.6628654929577462 -1.814079295774647 0.5787970422535212
C -1.8438954929577462 -2.213429295774647 -1.4808029577464787
C 0.5129345070422537 -1.5763292957746469 -0.13022295774647863
H -0.6401854929577462 -1.7032692957746463 1.6609470422535213
C -0.6547954929577462 -1.9962392957746466 -2.1933129577464787
H -2.7578654929577464 -2.4351492957746466 -2.026182957746479
C 0.5308845070422537 -1.645769295774647 -1.5261029577464789
H 1.4044045070422537 -1.2610992957746463 0.41551704225352126
H -0.6795654929577464 -2.0467992957746466 -3.2793129577464786
C 1.7843245070422535 -1.2521692957746469 -2.2771629577464787
H 1.4981245070422535 -0.9384492957746469 -3.290282957746479
H 2.241984507042254 -0.38631929577464685 -1.8135029577464787
C 0.9385645070422537 2.0647807042253534 1.9815670422535212
H 1.0508945070422537 1.5807407042253532 2.9609770422535213
H 1.6053245070422537 1.5496207042253536 1.3096170422535214
C 3.9676945070422533 -1.6881692957746468 -3.314052957746479
H 4.795084507042254 -2.398849295774647 -3.4044129577464783
H 3.548404507042253 -1.4816192957746468 -4.303802957746479
H 4.307714507042253 -0.7637192957746466 -2.851282957746479
C 2.344694507042253 -3.565079295774647 -3.101282957746479
H 1.6334345070422536 -4.047909295774646 -2.4251929577464786
H 1.8561845070422536 -3.293109295774647 -4.041792957746479
H 3.1808045070422537 -4.243519295774647 -3.298122957746479
C 3.5156645070422536 -2.648489295774647 -1.1110629577464786
H 3.9311845070422535 -1.748249295774647 -0.6771029577464787
H 2.767184507042254 -3.1044092957746465 -0.45972295774647876
H 4.319224507042254 -3.371819295774647 -1.2863129577464787
C 2.963994507042253 3.381090704225353 2.401027042253521
H 3.3337945070422537 4.369820704225353 2.6912870422535216
H 3.120994507042253 2.671350704225353 3.2183370422535216
H 3.4665445070422534 3.0664207042253535 1.4881370422535212
C 1.2973745070422538 4.282440704225354 0.8488370422535213
H 1.7592145070422538 3.7367207042253527 0.02653704225352116
H 0.23311450704225378 4.4484607042253534 0.6605570422535213
H 1.7921845070422535 5.251370704225354 0.9736770422535213
C 0.7724845070422537 4.194670704225353 3.2772470422535216
H -0.2956954929577462 4.278220704225354 3.057857042253521
H 0.9298945070422537 3.612620704225354 4.190337042253521
H 1.2046345070422537 5.193640704225353 3.3918370422535213
N 2.876084507042253 -2.324759295774647 -2.4576629577464786
N 1.4527845070422536 3.504690704225353 2.1388470422535213
C -3.593905492957746 -3.637819295774647 0.8297870422535213
H -2.8952554929577463 -1.8680692957746468 1.7595270422535212
H -5.022615492957747 -1.2402792957746467 1.1579970422535213
H -4.898275492957747 -1.7933092957746464 -0.48931295774647876
H -3.883675492957746 0.07871070422535364 -1.2758929577464788
H -3.8751654929577466 -4.038529295774646 -0.1505529577464788
H -4.4603554929577465 -3.7321892957746465 1.4932570422535212
H -2.7953554929577464 -4.271929295774647 1.2313670422535212
H -5.648775492957746 1.147700704225353 0.9733970422535213
H -6.189795492957747 0.5254307042253537 -0.5943629577464788
H -5.2178854929577465 2.002970704225354 -0.5139729577464787
C 3.6710445070422537 1.0263707042253536 -0.27764295774647874
O 2.7356545070422538 1.6631507042253526 -0.7327029577464788
O 3.650814507042253 0.3883007042253537 0.7790570422535212
O 4.756604507042254 0.8696707042253538 -0.8334829577464786
O -4.137880252782958 -5.292453480457784 -4.644674934865724
H -4.342610304327196 -5.804466191055641 -3.8478713536231886
H -3.2206312424788064 -5.5307376787420175 -4.846756201301026
O -7.648670948058974 -3.815861036846949 -7.627652791129236
H -8.426933934918814 -3.7974138322577144 -7.050648648313223
H -6.945367799711747 -4.166726909432258 -7.060890261245841
O 5.434231988397612 7.656437457535759 0.391267652273128
H 5.7916198376122665 7.938571891425782 -0.4640927649471702
H 6.042625233565287 6.960080459219081 0.6809338988910771
O 5.112125399076579 -7.534023277306693 10.053094186122312
H 5.099185109427464 -7.7990864807542035 10.985049873900405
H 4.190078360250261 -7.30543521120554 9.861943202531451
O 4.063228163075543 3.4694464202152306 -1.7179928907970186
H 4.326171451312307 3.654847808609656 -0.8039608841076147
H 4.154616375586489 4.32392488724773 -2.16573912282119
O -9.108190051161197 10.825254601999369 -6.417838329735498
H -9.959501378439358 10.772706969918012 -6.8777025785204415
H -9.057185506905265 11.747356599802618 -6.124430104880609
O 5.43671759379183 0.8641086774280433 -6.48777448577162
H 5.288668284230117 1.0088545110061304 -7.43439869975523
H 4.546308921173028 0.8833490727253472 -6.105983774499036
O 0.387334712158528 12.781263016002207 1.9639485213940149
H 0.5502754692249987 13.347281533548449 2.733390334906487
H 1.1778869493865285 12.898004227947508 1.4158968870133257
O -2.513865980139067 -2.1598361859788824 -7.855040650418331
H -1.9434441142601249 -2.884295785359672 -8.152940869774099
H -2.1293206457584093 -1.8928613910604797 -7.006623719314087
O 3.2968440516526387 3.8733769015679402 -7.436123582280102
H 3.449044957518769 3.499901164387868 -8.317212746264843
H 3.8763995267923503 3.354253729206107 -6.858552350783441
O 5.411163542007698 6.352739092121668 -5.078958448241872
H 6.1309631317251725 6.479515800345875 -5.715184488100656
H 5.329566246547427 7.214329980665346 -4.643108741975956
O 11.250319566616897 10.92874057914107 3.3835920439884215
H 12.115567130744054 11.094168066106926 2.97992416537014
H 11.061730518580914 11.742501797160187 3.8747018029109297
O 0.9772023887516395 0.4812742994831868 9.105324596087033
H 0.5788969014615994 -0.2804390634135496 8.657984849944139
H 1.8653708713049793 0.17513209876328828 9.342802266273672
O -5.991192828973973 -6.756032124004386 7.682782420223159
H -6.161270192562147 -6.6142928668183645 6.739410261280967
H -5.025368633595518 -6.808282973672183 7.741223986171988
O -0.8803403943390009 -7.358716800620328 8.387858110029192
H -1.5953878352355164 -7.309379914661549 7.735753528040049
H -0.07858788376692871 -7.442654794794065 7.850169288101984
O -10.464424641621896 -1.2632411298449822 3.9882472002202056
H -11.033880482117151 -2.017408093496638 4.2025357756559565
H -10.783695058309387 -0.9674271621706905 3.1224975586626784
O -11.919922144926247 -1.9881486730404463 1.4213486576556864
H -12.228279088137768 -1.8134046193924895 2.3232066665395283
H -11.71420916999411 -1.1088970560251195 1.0698366234086336
O 7.553973165346125 -3.3663868780680524 -6.884146626915079
H 7.49383896452921 -3.381878092156593 -5.917135118670128
H 6.75669188395693 -3.8335824469954005 -7.1757504729477635
O -2.909565618031091 -11.510902616467302 -3.843808540220006
H -1.9586843598099086 -11.550712414311096 -4.0260374338108385
H -3.048182634433254 -10.60829493478899 -3.519699546146929
O -9.975984936656873 0.9629091938096721 -1.482230387277304
H -10.13074275374666 0.4728876062599987 -2.3037510618101504
H -10.828967968339715 0.926737021136173 -1.0238926669386568
O -2.9499789786596997 8.955379596510188 -2.415882976602915
H -3.42430026575367 9.786266724328748 -2.2622169285150386
H -3.0839230564011375 8.454548255892618 -1.5972323205882724
O 6.423380163816512 -9.627831653466165 0.4093378468182669
H 7.257697114533073 -9.731627902266242 -0.07243899092100747
H 6.511615257567582 -10.230726285831466 1.1627929382443236
O -8.162357871311373 -2.054908286895632 -5.704301828825507
H -8.078217661148232 -1.7968606960119402 -6.6345164399625425
H -8.455987406782194 -2.9775388117701365 -5.742987158977714
O -3.758100337706434 -11.717201497893473 11.36798693612263
H -3.818821305338547 -11.748524935172282 12.334578454431613
H -2.838871579019548 -11.961785088675706 11.183164587303455
C 7.879552525810597 -7.839223215397277 9.962401999870362
O 8.10079333297617 -7.848464454865919 8.786057933689975
O 7.658311718645024 -7.829981975928634 11.138746066050754