146

C -5.3564454929577465 1.0091607042253532 -0.0734429577464788
C -4.079135492957747 0.16955070422535368 -0.19788295774647868
C -4.333545492957747 -1.2789292957746463 0.3017270422535212
C -3.1403854929577464 -2.1745492957746464 0.7330270422535212
C -2.905235492957746 0.902300704225353 0.41966704225352136
C -2.7423854929577463 1.056130704225354 1.8024770422535212
C -1.8861754929577463 1.3499307042253532 -0.4326129577464788
C -1.5304554929577463 1.5279207042253526 2.3254170422535214
H -3.5237954929577464 0.7301007042253529 2.484817042253521
C -0.6776454929577462 1.8010507042253527 0.08546704225352131
H -1.9759254929577463 1.2426607042253535 -1.5115229577464788
C -0.4680254929577463 1.8513207042253539 1.4698070422535212
H -1.3950654929577464 1.5446707042253527 3.404047042253521
H 0.1461845070422536 1.9972507042253538 -0.6030529577464789
C -1.8679654929577463 -2.0866092957746467 -0.08765295774647863
C -0.6628654929577462 -1.814079295774647 0.5787970422535212
C -1.8438954929577462 -2.213429295774647 -1.4808029577464787
C 0.5129345070422537 -1.5763292957746469 -0.13022295774647863
H -0.6401854929577462 -1.7032692957746463 1.6609470422535213
C -0.6547954929577462 -1.9962392957746466 -2.1933129577464787
H -2.7578654929577464 -2.4351492957746466 -2.026182957746479
C 0.5308845070422537 -1.645769295774647 -1.5261029577464789
H 1.4044045070422537 -1.2610992957746463 0.41551704225352126
H -0.6795654929577464 -2.0467992957746466 -3.2793129577464786
C 1.7843245070422535 -1.2521692957746469 -2.2771629577464787
H 1.4981245070422535 -0.9384492957746469 -3.290282957746479
H 2.241984507042254 -0.38631929577464685 -1.8135029577464787
C 0.9385645070422537 2.0647807042253534 1.9815670422535212
H 1.0508945070422537 1.5807407042253532 2.9609770422535213
H 1.6053245070422537 1.5496207042253536 1.3096170422535214
C 3.9676945070422533 -1.6881692957746468 -3.314052957746479
H 4.795084507042254 -2.398849295774647 -3.4044129577464783
H 3.548404507042253 -1.4816192957746468 -4.303802957746479
H 4.307714507042253 -0.7637192957746466 -2.851282957746479
C 2.344694507042253 -3.565079295774647 -3.101282957746479
H 1.6334345070422536 -4.047909295774646 -2.4251929577464786
H 1.8561845070422536 -3.293109295774647 -4.041792957746479
H 3.1808045070422537 -4.243519295774647 -3.298122957746479
C 3.5156645070422536 -2.648489295774647 -1.1110629577464786
H 3.9311845070422535 -1.748249295774647 -0.6771029577464787
H 2.767184507042254 -3.1044092957746465 -0.45972295774647876
H 4.319224507042254 -3.371819295774647 -1.2863129577464787
C 2.963994507042253 3.381090704225353 2.401027042253521
H 3.3337945070422537 4.369820704225353 2.6912870422535216
H 3.120994507042253 2.671350704225353 3.2183370422535216
H 3.4665445070422534 3.0664207042253535 1.4881370422535212
C 1.2973745070422538 4.282440704225354 0.8488370422535213
H 1.7592145070422538 3.7367207042253527 0.02653704225352116
H 0.23311450704225378 4.4484607042253534 0.6605570422535213
H 1.7921845070422535 5.251370704225354 0.9736770422535213
C 0.7724845070422537 4.194670704225353 3.2772470422535216
H -0.2956954929577462 4.278220704225354 3.057857042253521
H 0.9298945070422537 3.612620704225354 4.190337042253521
H 1.2046345070422537 5.193640704225353 3.3918370422535213
N 2.876084507042253 -2.324759295774647 -2.4576629577464786
N 1.4527845070422536 3.504690704225353 2.1388470422535213
C -3.593905492957746 -3.637819295774647 0.8297870422535213
H -2.8952554929577463 -1.8680692957746468 1.7595270422535212
H -5.022615492957747 -1.2402792957746467 1.1579970422535213
H -4.898275492957747 -1.7933092957746464 -0.48931295774647876
H -3.883675492957746 0.07871070422535364 -1.2758929577464788
H -3.8751654929577466 -4.038529295774646 -0.1505529577464788
H -4.4603554929577465 -3.7321892957746465 1.4932570422535212
H -2.7953554929577464 -4.271929295774647 1.2313670422535212
H -5.648775492957746 1.147700704225353 0.9733970422535213
H -6.189795492957747 0.5254307042253537 -0.5943629577464788
H -5.2178854929577465 2.002970704225354 -0.5139729577464787
C 3.6710445070422537 1.0263707042253536 -0.27764295774647874
O 2.7356545070422538 1.6631507042253526 -0.7327029577464788
O 3.650814507042253 0.3883007042253537 0.7790570422535212
O 4.756604507042254 0.8696707042253538 -0.8334829577464786
O -9.837192854823526 1.169417697626235 -2.1324972322420432
H -10.796652886212513 1.1538395946380133 -2.267260460811006
H -9.577712499168475 2.063794819350128 -2.4003058457443234
O 0.8950217441100039 -0.09689013454652246 4.934170553466703
H 0.22981079174811336 -0.6214131796968466 4.463705548536454
H 0.38748301975557675 0.36643319210860964 5.617323451841511
O -0.5243129841767942 -8.779505312472105 10.525958604162625
H -1.043375804639377 -9.514237311220217 10.886111398583317
H -0.029255023526855328 -9.178886519896405 9.794949567930217
O -5.591913896676725 0.5672826259507034 -5.028467375876599
H -4.760035532695468 0.10474897486490742 -4.846785329286652
H -6.273361904334587 -0.09860451291204392 -4.8518749766734866
O 3.1531647530053566 -5.420748186320225 7.156344739332585
H 3.4993578639485423 -6.101190419706178 6.559590138294424
H 3.167149337546795 -4.6121603326721905 6.622535729828185
O -1.1698672478625096 -2.527731329153238 -6.3978401238546
H -0.44366709319222 -2.2115301284174187 -6.9560672218264505
H -0.9073654947808911 -3.429959828318946 -6.1611155809312415
O 8.946652198064445 -1.8275884215593572 -2.357633949360094
H 9.030734079010431 -1.800236197739547 -1.3926730952065707
H 9.830930625619462 -2.0806480878967077 -2.6625510071545917
O -0.25635078140982737 -4.393520758998179 6.936661646315535
H -0.07671929097201735 -4.593059532616387 6.005595503463141
H 0.11636748167657052 -5.149799202177426 7.414245101896057
O 3.78613117994402 -2.9110306829420556 8.944555806577863
H 3.326582536909132 -3.761232944714683 9.014830379941941
H 4.157897112612728 -2.772144399360128 9.828559559872929
O -6.244123319980019 2.079208940328389 -3.20037579686753
H -6.73638067703738 2.141437035915955 -4.0327084920336205
H -6.8366936316881475 1.5847950114461211 -2.6143918065492544
O -9.05184250795829 3.357556572423146 5.765880760757677
H -8.958121710487998 3.7788081539661715 4.898280118717208
H -9.870496660827238 3.7344497747816656 6.121856653630161
O 10.679573566902056 -4.813821774458901 4.949777095635003
H 10.665798115852784 -5.169652413705628 4.0485767017038565
H 10.319470867662 -5.5325956669604945 5.490750368318724
O 6.888339058005553 -7.773493438642456 4.252017776414843
H 6.8885883399638805 -7.80120782933177 5.220624614769408
H 6.5254524211288105 -6.899668516848115 4.042959796114156
O -1.5211545644068483 -4.451576487341887 -1.236660672986263
H -1.58725816692355 -4.830162759376788 -0.3471270281694798
H -1.359369939114249 -3.509344122433811 -1.078591543050437
O 1.8470973913027582 4.321047502734984 -6.929760051261565
H 0.980484095040514 3.9842331785308795 -7.202715840085363
H 1.6397145685823376 4.968283849891932 -6.239079647558492
O -2.8309113260685477 -8.267357937156609 -10.402071013773122
H -2.450910217866706 -8.09925834549253 -11.277461807617644
H -3.585843322468491 -7.661744987550675 -10.354399424947117
O 0.6552622850562506 9.280970149760918 -0.39405692859994357
H 0.494906848060928 8.768857882539574 -1.2008992406333758
H 0.6433265248506137 10.201933545919868 -0.6951315121563852
O 11.511352496459558 1.063090918938368 8.774614230182802
H 11.777839588270655 1.5337669911814857 9.578614243749875
H 11.80913554161266 1.6405923424479125 8.055740591659456
O -9.009463079755928 1.1440582628004123 1.546900973321967
H -8.570852237822152 0.8317984962746032 0.741244890090794
H -9.92429894889643 1.301897116398829 1.2691885804968042
O -2.4921239156568347 1.8239678810066673 14.293436971705201
H -3.166412933657768 2.481747170203019 14.520655113163315
H -2.325043105337156 1.975945572819871 13.351126657469997
O 6.5094400639197785 1.2316579581956804 5.8222422523937265
H 6.127808804875974 0.8623731899535632 5.0117154490337095
H 7.2295156683230175 0.6212897349219553 6.041111391974858
O 2.8652769401849927 8.406444014562673 10.744430945793123
H 3.493678275401736 9.14020379441373 10.669093675662431
H 3.0046445224108362 7.894725452830538 9.933454537441241
O -6.029292064871159 8.68889816735678 -11.66625585639899
H -6.330133232478795 8.611056161396068 -12.58408076937558
H -5.370780274110417 9.39916899765763 -11.695230213213527
O -7.55281623782074 -2.9290827034678344 -6.636755581413
H -7.250141028132743 -3.2046627534499184 -7.515055479165585
H -6.732983747974464 -2.798520189820805 -6.136965562582468
C 8.891850628070676 0.6448992713704631 -4.01419153220481
O 9.54944843684647 0.8211155427037524 -4.9987377245750135
O 8.234252819294882 0.4686830000371729 -3.029645339834606