146

C -5.3564454929577465 1.0091607042253532 -0.0734429577464788
C -4.079135492957747 0.16955070422535368 -0.19788295774647868
C -4.333545492957747 -1.2789292957746463 0.3017270422535212
C -3.1403854929577464 -2.1745492957746464 0.7330270422535212
C -2.905235492957746 0.902300704225353 0.41966704225352136
C -2.7423854929577463 1.056130704225354 1.8024770422535212
C -1.8861754929577463 1.3499307042253532 -0.4326129577464788
C -1.5304554929577463 1.5279207042253526 2.3254170422535214
H -3.5237954929577464 0.7301007042253529 2.484817042253521
C -0.6776454929577462 1.8010507042253527 0.08546704225352131
H -1.9759254929577463 1.2426607042253535 -1.5115229577464788
C -0.4680254929577463 1.8513207042253539 1.4698070422535212
H -1.3950654929577464 1.5446707042253527 3.404047042253521
H 0.1461845070422536 1.9972507042253538 -0.6030529577464789
C -1.8679654929577463 -2.0866092957746467 -0.08765295774647863
C -0.6628654929577462 -1.814079295774647 0.5787970422535212
C -1.8438954929577462 -2.213429295774647 -1.4808029577464787
C 0.5129345070422537 -1.5763292957746469 -0.13022295774647863
H -0.6401854929577462 -1.7032692957746463 1.6609470422535213
C -0.6547954929577462 -1.9962392957746466 -2.1933129577464787
H -2.7578654929577464 -2.4351492957746466 -2.026182957746479
C 0.5308845070422537 -1.645769295774647 -1.5261029577464789
H 1.4044045070422537 -1.2610992957746463 0.41551704225352126
H -0.6795654929577464 -2.0467992957746466 -3.2793129577464786
C 1.7843245070422535 -1.2521692957746469 -2.2771629577464787
H 1.4981245070422535 -0.9384492957746469 -3.290282957746479
H 2.241984507042254 -0.38631929577464685 -1.8135029577464787
C 0.9385645070422537 2.0647807042253534 1.9815670422535212
H 1.0508945070422537 1.5807407042253532 2.9609770422535213
H 1.6053245070422537 1.5496207042253536 1.3096170422535214
C 3.9676945070422533 -1.6881692957746468 -3.314052957746479
H 4.795084507042254 -2.398849295774647 -3.4044129577464783
H 3.548404507042253 -1.4816192957746468 -4.303802957746479
H 4.307714507042253 -0.7637192957746466 -2.851282957746479
C 2.344694507042253 -3.565079295774647 -3.101282957746479
H 1.6334345070422536 -4.047909295774646 -2.4251929577464786
H 1.8561845070422536 -3.293109295774647 -4.041792957746479
H 3.1808045070422537 -4.243519295774647 -3.298122957746479
C 3.5156645070422536 -2.648489295774647 -1.1110629577464786
H 3.9311845070422535 -1.748249295774647 -0.6771029577464787
H 2.767184507042254 -3.1044092957746465 -0.45972295774647876
H 4.319224507042254 -3.371819295774647 -1.2863129577464787
C 2.963994507042253 3.381090704225353 2.401027042253521
H 3.3337945070422537 4.369820704225353 2.6912870422535216
H 3.120994507042253 2.671350704225353 3.2183370422535216
H 3.4665445070422534 3.0664207042253535 1.4881370422535212
C 1.2973745070422538 4.282440704225354 0.8488370422535213
H 1.7592145070422538 3.7367207042253527 0.02653704225352116
H 0.23311450704225378 4.4484607042253534 0.6605570422535213
H 1.7921845070422535 5.251370704225354 0.9736770422535213
C 0.7724845070422537 4.194670704225353 3.2772470422535216
H -0.2956954929577462 4.278220704225354 3.057857042253521
H 0.9298945070422537 3.612620704225354 4.190337042253521
H 1.2046345070422537 5.193640704225353 3.3918370422535213
N 2.876084507042253 -2.324759295774647 -2.4576629577464786
N 1.4527845070422536 3.504690704225353 2.1388470422535213
C -3.593905492957746 -3.637819295774647 0.8297870422535213
H -2.8952554929577463 -1.8680692957746468 1.7595270422535212
H -5.022615492957747 -1.2402792957746467 1.1579970422535213
H -4.898275492957747 -1.7933092957746464 -0.48931295774647876
H -3.883675492957746 0.07871070422535364 -1.2758929577464788
H -3.8751654929577466 -4.038529295774646 -0.1505529577464788
H -4.4603554929577465 -3.7321892957746465 1.4932570422535212
H -2.7953554929577464 -4.271929295774647 1.2313670422535212
H -5.648775492957746 1.147700704225353 0.9733970422535213
H -6.189795492957747 0.5254307042253537 -0.5943629577464788
H -5.2178854929577465 2.002970704225354 -0.5139729577464787
C 3.6710445070422537 1.0263707042253536 -0.27764295774647874
O 2.7356545070422538 1.6631507042253526 -0.7327029577464788
O 3.650814507042253 0.3883007042253537 0.7790570422535212
O 4.756604507042254 0.8696707042253538 -0.8334829577464786
O -6.478001065421076 -13.021843713092036 3.4330394048271202
H -7.042354311219081 -13.736693526068748 3.102188206031629
H -6.892616774347399 -12.764733914908359 4.270267157526153
O 1.942963947954605 11.065209808957615 2.378905790479755
H 1.1351092713318667 11.599031859722954 2.3418626200504256
H 2.4980280546863813 11.525273615942234 3.026367816563812
O 2.012188115491914 -9.73334013175663 4.268198178264888
H 2.724287938063602 -10.362869852984934 4.456807641663691
H 2.471697930879138 -8.963319527487322 3.900936768825334
O -14.665312780478198 -1.2710774676998269 0.831795043882023
H -14.150071882843076 -0.7281394301867294 1.447191226617651
H -14.817656540484114 -2.0953162784322013 1.3179881186678957
O -5.698098491984009 -13.587850835311556 -2.7484734780390268
H -6.558293074648574 -13.152948714848076 -2.84793594568841
H -5.147891569822682 -12.921003906110279 -2.310809839932559
O 6.480575385985863 10.8331426253887 4.697925690353648
H 6.142578315675115 11.080430869316025 5.571752825304659
H 6.9650404414652245 10.009516656406593 4.858847464945108
O -5.526278521132994 -0.7839199388630389 5.208397610866069
H -6.106827174356192 -0.74615948458634 4.433475184920381
H -5.8065778093948275 -0.02933450448066388 5.747837204813223
O -5.017915304962613 -2.1581184980860497 15.09770835579749
H -4.839837036671792 -1.6895655076694491 15.926993338438683
H -4.336000801247206 -2.845847823142241 15.06635665121343
O -6.544690424717613 9.687798286503737 10.089697705464816
H -6.824714569952436 10.615061235580658 10.116850205435922
H -6.742025929624154 9.35756817853808 10.979061927027766
O 8.597910720331868 4.744069047050555 -2.5951481264109106
H 9.383291717944612 4.187243248126537 -2.4851977960728946
H 8.32302459185363 4.582968039535995 -3.510268897701803
O 4.102051773480734 -2.51417828531668 -10.478445154168027
H 4.237949525203971 -2.465541014980864 -11.436638023015863
H 4.135232775825319 -1.5896646771370246 -10.190112787490188
O 6.493013253470469 -0.48238173274655516 -6.606390813832748
H 7.348800021181426 -0.8716902872253001 -6.371794960245135
H 6.543515922556525 -0.3678073441425691 -7.567267566695054
O -2.7489079966829926 -5.280227119298022 9.02228768887467
H -3.6553489452217973 -5.464238445144053 8.73337248388805
H -2.7986953109369823 -4.386994061624385 9.394601900688263
O 5.432628350159826 8.062316061775647 7.063648352733766
H 5.5833599851874185 7.106686357746822 7.118595599067794
H 5.418454463344036 8.350600899355033 7.988663432424016
O 0.21729509334983924 -4.244533004817069 -2.100808727627726
H 0.15653251768480952 -4.27461474490326 -1.1341803837375115
H -0.6036166500714903 -4.663461999688483 -2.4000817652856155
O -0.6774380517187981 -2.499765638933739 9.52696298034775
H -1.2767974491527752 -2.9884019353111397 8.94303641007529
H -1.1985313151445967 -1.7328357115148774 9.808462965323859
O -7.441447424893009 -1.1888026763359123 -0.9873580870172067
H -7.393299042419982 -1.2224744034833035 -1.954578488454306
H -6.6490769505955365 -1.6649487045676108 -0.6968483013631331
O -1.4608268431959788 -10.79104181425063 2.086835668556524
H -1.0521597948667756 -11.669507990967999 2.1028286943322367
H -2.3917230623668813 -10.969583515442656 1.8855472328013214
O 5.635009083580656 -6.56616037351371 -5.096578372566911
H 5.670185651596146 -6.6017577726615 -4.128868296595513
H 6.254518970232079 -7.255726183195121 -5.378834353477078
O -8.59263291911321 2.8163624978897097 5.662954070728512
H -8.966673627997505 3.3053702990423264 6.411240296319509
H -8.948076410457267 1.920969742390295 5.767326874467389
O -1.1638939539295698 -10.771736825355035 -3.305508558620432
H -1.281011736088355 -10.732999130966949 -4.266627787975304
H -2.068781465248029 -10.806873242235808 -2.960681111382448
O 1.6384724567171847 1.7320118466044594 8.427018872076358
H 1.7593059999542706 1.0637946250663872 7.735750214773922
H 0.9525189844528557 1.3558688916160149 8.99881101577988
O 0.7798347815028843 -4.877558167087565 6.627431878419053
H 0.6694632572881313 -4.463679245820642 5.7582427608655475
H 0.08856337120178914 -4.469706658044494 7.170352616806917
O -1.7963472825814142 4.549643615209136 -7.680323905768349
H -1.0961572581443628 4.690007233265015 -7.02534349285121
H -2.1215255902571655 5.442463364034071 -7.8703078751586935
C -9.040315881320545 5.164704282778914 -8.358449075871171
O -9.378147224606945 4.520243241426708 -7.407997495319832
O -8.702484538034145 5.8091653241311185 -9.308900656422509