146

C -5.3564454929577465 1.0091607042253532 -0.0734429577464788
C -4.079135492957747 0.16955070422535368 -0.19788295774647868
C -4.333545492957747 -1.2789292957746463 0.3017270422535212
C -3.1403854929577464 -2.1745492957746464 0.7330270422535212
C -2.905235492957746 0.902300704225353 0.41966704225352136
C -2.7423854929577463 1.056130704225354 1.8024770422535212
C -1.8861754929577463 1.3499307042253532 -0.4326129577464788
C -1.5304554929577463 1.5279207042253526 2.3254170422535214
H -3.5237954929577464 0.7301007042253529 2.484817042253521
C -0.6776454929577462 1.8010507042253527 0.08546704225352131
H -1.9759254929577463 1.2426607042253535 -1.5115229577464788
C -0.4680254929577463 1.8513207042253539 1.4698070422535212
H -1.3950654929577464 1.5446707042253527 3.404047042253521
H 0.1461845070422536 1.9972507042253538 -0.6030529577464789
C -1.8679654929577463 -2.0866092957746467 -0.08765295774647863
C -0.6628654929577462 -1.814079295774647 0.5787970422535212
C -1.8438954929577462 -2.213429295774647 -1.4808029577464787
C 0.5129345070422537 -1.5763292957746469 -0.13022295774647863
H -0.6401854929577462 -1.7032692957746463 1.6609470422535213
C -0.6547954929577462 -1.9962392957746466 -2.1933129577464787
H -2.7578654929577464 -2.4351492957746466 -2.026182957746479
C 0.5308845070422537 -1.645769295774647 -1.5261029577464789
H 1.4044045070422537 -1.2610992957746463 0.41551704225352126
H -0.6795654929577464 -2.0467992957746466 -3.2793129577464786
C 1.7843245070422535 -1.2521692957746469 -2.2771629577464787
H 1.4981245070422535 -0.9384492957746469 -3.290282957746479
H 2.241984507042254 -0.38631929577464685 -1.8135029577464787
C 0.9385645070422537 2.0647807042253534 1.9815670422535212
H 1.0508945070422537 1.5807407042253532 2.9609770422535213
H 1.6053245070422537 1.5496207042253536 1.3096170422535214
C 3.9676945070422533 -1.6881692957746468 -3.314052957746479
H 4.795084507042254 -2.398849295774647 -3.4044129577464783
H 3.548404507042253 -1.4816192957746468 -4.303802957746479
H 4.307714507042253 -0.7637192957746466 -2.851282957746479
C 2.344694507042253 -3.565079295774647 -3.101282957746479
H 1.6334345070422536 -4.047909295774646 -2.4251929577464786
H 1.8561845070422536 -3.293109295774647 -4.041792957746479
H 3.1808045070422537 -4.243519295774647 -3.298122957746479
C 3.5156645070422536 -2.648489295774647 -1.1110629577464786
H 3.9311845070422535 -1.748249295774647 -0.6771029577464787
H 2.767184507042254 -3.1044092957746465 -0.45972295774647876
H 4.319224507042254 -3.371819295774647 -1.2863129577464787
C 2.963994507042253 3.381090704225353 2.401027042253521
H 3.3337945070422537 4.369820704225353 2.6912870422535216
H 3.120994507042253 2.671350704225353 3.2183370422535216
H 3.4665445070422534 3.0664207042253535 1.4881370422535212
C 1.2973745070422538 4.282440704225354 0.8488370422535213
H 1.7592145070422538 3.7367207042253527 0.02653704225352116
H 0.23311450704225378 4.4484607042253534 0.6605570422535213
H 1.7921845070422535 5.251370704225354 0.9736770422535213
C 0.7724845070422537 4.194670704225353 3.2772470422535216
H -0.2956954929577462 4.278220704225354 3.057857042253521
H 0.9298945070422537 3.612620704225354 4.190337042253521
H 1.2046345070422537 5.193640704225353 3.3918370422535213
N 2.876084507042253 -2.324759295774647 -2.4576629577464786
N 1.4527845070422536 3.504690704225353 2.1388470422535213
C -3.593905492957746 -3.637819295774647 0.8297870422535213
H -2.8952554929577463 -1.8680692957746468 1.7595270422535212
H -5.022615492957747 -1.2402792957746467 1.1579970422535213
H -4.898275492957747 -1.7933092957746464 -0.48931295774647876
H -3.883675492957746 0.07871070422535364 -1.2758929577464788
H -3.8751654929577466 -4.038529295774646 -0.1505529577464788
H -4.4603554929577465 -3.7321892957746465 1.4932570422535212
H -2.7953554929577464 -4.271929295774647 1.2313670422535212
H -5.648775492957746 1.147700704225353 0.9733970422535213
H -6.189795492957747 0.5254307042253537 -0.5943629577464788
H -5.2178854929577465 2.002970704225354 -0.5139729577464787
C 3.6710445070422537 1.0263707042253536 -0.27764295774647874
O 2.7356545070422538 1.6631507042253526 -0.7327029577464788
O 3.650814507042253 0.3883007042253537 0.7790570422535212
O 4.756604507042254 0.8696707042253538 -0.8334829577464786
O 1.846155619832621 -2.1259030621025614 -13.798433122814718
H 2.4455790887485382 -2.6935079625795035 -14.305861481075635
H 1.4843190681071692 -2.7152430141950505 -13.119673463581012
O -2.9594599958662733 -3.3139731042879896 7.896483253834091
H -3.5732283266370435 -3.1199662330718487 8.620787835459659
H -2.121160081291 -3.5028380909659873 8.344306002620046
O -1.6632846949690467 7.35038424905842 -1.5018609681544506
H -1.7230843015745916 7.171275953307505 -2.452288020769761
H -2.392493347951428 7.965864247379322 -1.33333483848156
O -1.936938861141105 -7.171403269595365 -5.00811302844224
H -1.6722848341815206 -7.214676288261043 -5.939269862047428
H -1.3114315298250654 -6.543795144679212 -4.615926128725898
O -4.86168254033768 8.984583001195906 1.0093781670969246
H -4.046833773077717 9.219212449974522 0.5404028317531979
H -4.561543204546385 8.401575022225686 1.722806523603603
O 6.497530578369192 6.1059038000929515 4.855407775332459
H 6.918111776021011 6.24938713714684 3.9943088582099002
H 7.125691535062851 6.484495217806948 5.4886883570804015
O -7.0816961032873 3.7262343069209027 -3.924685949331282
H -7.746841277438109 3.777344167825063 -4.62749249193191
H -7.4029540692419555 3.0155670415740166 -3.3496143871974433
O 7.526010518081469 -5.499073064004938 -11.262136054202927
H 7.590694355991796 -5.471578454696898 -12.228586986466016
H 7.204607585193123 -4.616526567329943 -11.023863562636105
O -9.354108445676863 7.850174925195599 -1.3058522190811097
H -8.968845119204934 7.238216228510492 -1.9508685597479563
H -10.296896603181278 7.626318614788227 -1.304965280398985
O -13.649036102759162 -1.4393259139769388 4.917359116846605
H -13.435284102989009 -0.5300349090328151 4.659546572888853
H -12.78466879006157 -1.8454437330758795 5.08136951301181
O 9.831625781665377 -6.028490765126968 -4.583320728823035
H 9.868027184413812 -5.862679888060753 -3.6293034083175435
H 10.084366668283398 -5.180413212901345 -4.978097189548005
O -8.866337452478968 0.009950435568637913 -13.336008615120296
H -9.691914863843909 -0.36854197060784644 -13.673844067982637
H -8.189176901483428 -0.3274374414264801 -13.941471209284577
O -10.006039570896796 -8.166448770091424 -7.045005088645396
H -10.146288694707641 -8.317058211147918 -7.991902303994001
H -9.948533995095394 -7.202277699721696 -6.967357164565992
O 0.8387804672051837 15.104125169557687 4.524314381950863
H 1.6160516524610151 14.534716609115558 4.4214029988767845
H 0.09519448881069881 14.48323196365832 4.547411219464397
O -1.1090207883868044 3.03895095736793 -7.214741425264442
H -1.64959085054444 3.747081022894852 -7.595927961091363
H -1.3445939497443935 3.0447899057299135 -6.274830186566863
O 1.4457838264914864 -6.633900622603965 -11.69157928299626
H 0.791943077941232 -5.91911796157788 -11.71493265388171
H 1.43267182798902 -6.933088849037944 -10.770017334477028
O 2.5240911109320257 -6.302227067813373 -7.113527072147857
H 1.946015444492724 -5.791525696651818 -7.700025145686437
H 2.6375218562521154 -5.729661133364258 -6.340052016942751
O -9.00784328953993 5.295405775079694 -4.122968865699867
H -9.308510962872248 4.60604683770919 -3.5119446742145057
H -9.7975130350206 5.836917557835324 -4.271793011957494
O 11.936451113369849 1.4137295930690823 7.558773355746577
H 12.68306398103222 0.9177407867401359 7.926919640173516
H 12.213732697452365 2.339640239381514 7.627812058471825
O -5.996884264633351 2.82121953370399 -7.204949432697159
H -5.058893742238117 2.5961176275992717 -7.296983495221529
H -6.4053973832154 2.45263705784244 -8.002587154181128
O 3.7821837726247596 -6.072395965001975 0.6377068838841288
H 3.6614694500097453 -6.194993928670568 -0.3158995068871967
H 2.927462813778002 -5.730055591441639 0.93972856429573
O 10.434783276060223 -7.535146630069162 4.638570437144274
H 10.590647470719297 -8.055930228780948 5.44072887101883
H 9.92093052046694 -6.774680637521161 4.94938994111269
O -2.2977066106420425 -4.863650211317567 -4.3211021112267645
H -2.761021066411116 -5.27138877665204 -3.574070428957268
H -2.7736541263882044 -4.032128045129544 -4.466039317261081
O 0.7932338428673167 -7.062808447130811 -6.39648127475869
H 0.9071854754386994 -7.539267721273077 -7.232524899468634
H 0.8774515055447236 -7.752253817380312 -5.720807972759356
C -3.0403300786893017 3.8314610522046637 -0.9399804699537935
O -4.221536425245777 3.9578580190944725 -1.086928184858663
O -1.8591237321328271 3.7050640853148558 -0.7930327550489236