146

C -5.3564454929577465 1.0091607042253532 -0.0734429577464788
C -4.079135492957747 0.16955070422535368 -0.19788295774647868
C -4.333545492957747 -1.2789292957746463 0.3017270422535212
C -3.1403854929577464 -2.1745492957746464 0.7330270422535212
C -2.905235492957746 0.902300704225353 0.41966704225352136
C -2.7423854929577463 1.056130704225354 1.8024770422535212
C -1.8861754929577463 1.3499307042253532 -0.4326129577464788
C -1.5304554929577463 1.5279207042253526 2.3254170422535214
H -3.5237954929577464 0.7301007042253529 2.484817042253521
C -0.6776454929577462 1.8010507042253527 0.08546704225352131
H -1.9759254929577463 1.2426607042253535 -1.5115229577464788
C -0.4680254929577463 1.8513207042253539 1.4698070422535212
H -1.3950654929577464 1.5446707042253527 3.404047042253521
H 0.1461845070422536 1.9972507042253538 -0.6030529577464789
C -1.8679654929577463 -2.0866092957746467 -0.08765295774647863
C -0.6628654929577462 -1.814079295774647 0.5787970422535212
C -1.8438954929577462 -2.213429295774647 -1.4808029577464787
C 0.5129345070422537 -1.5763292957746469 -0.13022295774647863
H -0.6401854929577462 -1.7032692957746463 1.6609470422535213
C -0.6547954929577462 -1.9962392957746466 -2.1933129577464787
H -2.7578654929577464 -2.4351492957746466 -2.026182957746479
C 0.5308845070422537 -1.645769295774647 -1.5261029577464789
H 1.4044045070422537 -1.2610992957746463 0.41551704225352126
H -0.6795654929577464 -2.0467992957746466 -3.2793129577464786
C 1.7843245070422535 -1.2521692957746469 -2.2771629577464787
H 1.4981245070422535 -0.9384492957746469 -3.290282957746479
H 2.241984507042254 -0.38631929577464685 -1.8135029577464787
C 0.9385645070422537 2.0647807042253534 1.9815670422535212
H 1.0508945070422537 1.5807407042253532 2.9609770422535213
H 1.6053245070422537 1.5496207042253536 1.3096170422535214
C 3.9676945070422533 -1.6881692957746468 -3.314052957746479
H 4.795084507042254 -2.398849295774647 -3.4044129577464783
H 3.548404507042253 -1.4816192957746468 -4.303802957746479
H 4.307714507042253 -0.7637192957746466 -2.851282957746479
C 2.344694507042253 -3.565079295774647 -3.101282957746479
H 1.6334345070422536 -4.047909295774646 -2.4251929577464786
H 1.8561845070422536 -3.293109295774647 -4.041792957746479
H 3.1808045070422537 -4.243519295774647 -3.298122957746479
C 3.5156645070422536 -2.648489295774647 -1.1110629577464786
H 3.9311845070422535 -1.748249295774647 -0.6771029577464787
H 2.767184507042254 -3.1044092957746465 -0.45972295774647876
H 4.319224507042254 -3.371819295774647 -1.2863129577464787
C 2.963994507042253 3.381090704225353 2.401027042253521
H 3.3337945070422537 4.369820704225353 2.6912870422535216
H 3.120994507042253 2.671350704225353 3.2183370422535216
H 3.4665445070422534 3.0664207042253535 1.4881370422535212
C 1.2973745070422538 4.282440704225354 0.8488370422535213
H 1.7592145070422538 3.7367207042253527 0.02653704225352116
H 0.23311450704225378 4.4484607042253534 0.6605570422535213
H 1.7921845070422535 5.251370704225354 0.9736770422535213
C 0.7724845070422537 4.194670704225353 3.2772470422535216
H -0.2956954929577462 4.278220704225354 3.057857042253521
H 0.9298945070422537 3.612620704225354 4.190337042253521
H 1.2046345070422537 5.193640704225353 3.3918370422535213
N 2.876084507042253 -2.324759295774647 -2.4576629577464786
N 1.4527845070422536 3.504690704225353 2.1388470422535213
C -3.593905492957746 -3.637819295774647 0.8297870422535213
H -2.8952554929577463 -1.8680692957746468 1.7595270422535212
H -5.022615492957747 -1.2402792957746467 1.1579970422535213
H -4.898275492957747 -1.7933092957746464 -0.48931295774647876
H -3.883675492957746 0.07871070422535364 -1.2758929577464788
H -3.8751654929577466 -4.038529295774646 -0.1505529577464788
H -4.4603554929577465 -3.7321892957746465 1.4932570422535212
H -2.7953554929577464 -4.271929295774647 1.2313670422535212
H -5.648775492957746 1.147700704225353 0.9733970422535213
H -6.189795492957747 0.5254307042253537 -0.5943629577464788
H -5.2178854929577465 2.002970704225354 -0.5139729577464787
C 3.6710445070422537 1.0263707042253536 -0.27764295774647874
O 2.7356545070422538 1.6631507042253526 -0.7327029577464788
O 3.650814507042253 0.3883007042253537 0.7790570422535212
O 4.756604507042254 0.8696707042253538 -0.8334829577464786
O -9.209089891038063 2.1107802194511134 1.0288684128833867
H -9.720955077551814 2.2529378570582943 0.21846567732211675
H -9.712371572351632 2.5825662568792067 1.709373687250959
O 6.41360224959035 0.37281461545130634 -5.18017917698307
H 6.502081716109059 0.6085772876175066 -4.244468375871093
H 5.559664986108456 0.7518092862965204 -5.437309754332363
O 4.378304261534743 -11.27727161751481 3.5920284533023805
H 4.521393880809274 -11.935301059216641 4.288799557474653
H 5.083565348918563 -10.628246142834236 3.7346281592552644
O 4.782721510134497 5.13453108038254 9.53839441642924
H 5.277329822309817 4.3775472689913 9.886683784223715
H 3.879997311032839 4.992628288212143 9.860752233506032
O 2.2347985212876784 -2.6400698719814732 -9.706153059668361
H 2.6465158494438024 -1.862961267042857 -10.113041760330276
H 2.973459186283552 -3.100042260703111 -9.279810746612803
O 6.169097697626869 -4.028663384156138 -0.5243849247036956
H 6.035333207040545 -4.121683813402178 -1.4795925553793854
H 6.932739975724722 -3.436628058480065 -0.4515385894963112
O -0.16735623573858027 -7.69245232978756 -11.143731130928378
H 0.5717868256374243 -7.072422105907128 -11.053191563917661
H -0.8553509502393355 -7.173399389178622 -11.586686277601535
O -2.753679530054567 -7.324796876557322 -3.4618932867825825
H -2.835851318906928 -7.397646519649854 -4.424653944224552
H -3.510688450845419 -7.82635641860318 -3.1237550548036803
O 11.425977953050184 10.52501041398848 -0.8191853281057273
H 10.698034549419889 10.601848850452823 -0.18423524133286895
H 11.94613985038668 9.776876673552477 -0.4895044956623946
O 3.862301791460787 -12.216697767273807 7.035650397172269
H 3.8408111038426016 -12.345117314455074 6.0754348343180435
H 4.32624180792266 -13.000530901671254 7.366297070898213
O 1.070065845043137 -1.6676386668522387 4.2372267818290865
H 1.362237034608502 -1.221161477821629 3.4283624714758067
H 1.5001782596187498 -1.1691078626263935 4.948164396789687
O 1.714899363475382 9.177935349174824 5.859038201039617
H 2.2791126121188605 9.887298046115529 6.20172658885599
H 2.2037243790770265 8.368018095302643 6.068909805365218
O 0.5923423599975215 4.37924991799529 6.153435476471871
H 0.7511537187351355 3.5994667200751733 5.600548079728746
H 1.3333983507953342 4.378355843923389 6.7777728559665045
O 2.906819616273701 -7.097829296917832 3.0619605995513037
H 3.148791331101667 -6.878816391400133 2.149573404693818
H 3.650154188877519 -7.632299112776345 3.3793840917633062
O -13.726149063598585 1.7369952565623894 6.215754713111662
H -14.376764613604735 2.4350303551117465 6.047190884894023
H -12.919433344961522 2.060553282564044 5.787406843484885
O -9.65819522818921 -4.880060882420054 7.793151211320255
H -9.600575071311594 -4.942813920788767 8.758402127194929
H -8.749297966858975 -5.032931753373088 7.49398869785899
O -6.238110201124858 2.914984049542089 6.93869533992334
H -6.064748320478773 3.593490134355954 7.608428501794108
H -5.505200612794925 2.2898526383124778 7.043653418831655
O 1.9419911799102734 -8.391097564596881 8.793168077740136
H 2.5728317281933544 -9.027301830144818 9.162290946227733
H 1.755119228172972 -7.791678831277828 9.531231760697148
O 1.5172564364753738 -2.9980500198340843 12.544435804604644
H 2.263309246392942 -3.5659684964448277 12.789060344743675
H 0.7457767829690072 -3.579437811127149 12.62039187520515
O -0.499526844061033 -10.491449192860014 0.6855137687459483
H -0.23335313004211855 -10.511836206481412 -0.24599215208385528
H -0.38786136282027694 -11.407533009778067 0.9809510801677099
O 2.9735654167628347 6.685711879597733 -4.183829320565922
H 3.0473376771849496 6.570451178100912 -5.143120715910774
H 2.6182235559698146 5.839478160374613 -3.873051910321932
O -1.7121748179403704 -6.1496189473046945 4.288831487053205
H -1.3578636502631916 -5.885100173173362 3.4265897741378
H -0.9733231220875993 -6.006799085860814 4.899292462884285
O -6.792236308746171 2.3599630632121755 -9.781036354005732
H -7.1246052688936725 2.227879828022635 -8.880451960285558
H -6.777327907390795 1.4675279482377368 -10.158262081428433
O -4.5358987668495985 -5.3350164925058845 -7.254977281788519
H -3.792691985899614 -5.380588579414419 -7.87508551632888
H -5.240071981190311 -5.833097216144284 -7.69658527678512
C -2.6127308478935323 0.42165309209672275 13.613695262599855
O -2.53497004455976 1.2839035240191978 12.787078236756331
O -2.6904916512273056 -0.4405973398257532 14.440312288443378