146

C -5.3564454929577465 1.0091607042253532 -0.0734429577464788
C -4.079135492957747 0.16955070422535368 -0.19788295774647868
C -4.333545492957747 -1.2789292957746463 0.3017270422535212
C -3.1403854929577464 -2.1745492957746464 0.7330270422535212
C -2.905235492957746 0.902300704225353 0.41966704225352136
C -2.7423854929577463 1.056130704225354 1.8024770422535212
C -1.8861754929577463 1.3499307042253532 -0.4326129577464788
C -1.5304554929577463 1.5279207042253526 2.3254170422535214
H -3.5237954929577464 0.7301007042253529 2.484817042253521
C -0.6776454929577462 1.8010507042253527 0.08546704225352131
H -1.9759254929577463 1.2426607042253535 -1.5115229577464788
C -0.4680254929577463 1.8513207042253539 1.4698070422535212
H -1.3950654929577464 1.5446707042253527 3.404047042253521
H 0.1461845070422536 1.9972507042253538 -0.6030529577464789
C -1.8679654929577463 -2.0866092957746467 -0.08765295774647863
C -0.6628654929577462 -1.814079295774647 0.5787970422535212
C -1.8438954929577462 -2.213429295774647 -1.4808029577464787
C 0.5129345070422537 -1.5763292957746469 -0.13022295774647863
H -0.6401854929577462 -1.7032692957746463 1.6609470422535213
C -0.6547954929577462 -1.9962392957746466 -2.1933129577464787
H -2.7578654929577464 -2.4351492957746466 -2.026182957746479
C 0.5308845070422537 -1.645769295774647 -1.5261029577464789
H 1.4044045070422537 -1.2610992957746463 0.41551704225352126
H -0.6795654929577464 -2.0467992957746466 -3.2793129577464786
C 1.7843245070422535 -1.2521692957746469 -2.2771629577464787
H 1.4981245070422535 -0.9384492957746469 -3.290282957746479
H 2.241984507042254 -0.38631929577464685 -1.8135029577464787
C 0.9385645070422537 2.0647807042253534 1.9815670422535212
H 1.0508945070422537 1.5807407042253532 2.9609770422535213
H 1.6053245070422537 1.5496207042253536 1.3096170422535214
C 3.9676945070422533 -1.6881692957746468 -3.314052957746479
H 4.795084507042254 -2.398849295774647 -3.4044129577464783
H 3.548404507042253 -1.4816192957746468 -4.303802957746479
H 4.307714507042253 -0.7637192957746466 -2.851282957746479
C 2.344694507042253 -3.565079295774647 -3.101282957746479
H 1.6334345070422536 -4.047909295774646 -2.4251929577464786
H 1.8561845070422536 -3.293109295774647 -4.041792957746479
H 3.1808045070422537 -4.243519295774647 -3.298122957746479
C 3.5156645070422536 -2.648489295774647 -1.1110629577464786
H 3.9311845070422535 -1.748249295774647 -0.6771029577464787
H 2.767184507042254 -3.1044092957746465 -0.45972295774647876
H 4.319224507042254 -3.371819295774647 -1.2863129577464787
C 2.963994507042253 3.381090704225353 2.401027042253521
H 3.3337945070422537 4.369820704225353 2.6912870422535216
H 3.120994507042253 2.671350704225353 3.2183370422535216
H 3.4665445070422534 3.0664207042253535 1.4881370422535212
C 1.2973745070422538 4.282440704225354 0.8488370422535213
H 1.7592145070422538 3.7367207042253527 0.02653704225352116
H 0.23311450704225378 4.4484607042253534 0.6605570422535213
H 1.7921845070422535 5.251370704225354 0.9736770422535213
C 0.7724845070422537 4.194670704225353 3.2772470422535216
H -0.2956954929577462 4.278220704225354 3.057857042253521
H 0.9298945070422537 3.612620704225354 4.190337042253521
H 1.2046345070422537 5.193640704225353 3.3918370422535213
N 2.876084507042253 -2.324759295774647 -2.4576629577464786
N 1.4527845070422536 3.504690704225353 2.1388470422535213
C -3.593905492957746 -3.637819295774647 0.8297870422535213
H -2.8952554929577463 -1.8680692957746468 1.7595270422535212
H -5.022615492957747 -1.2402792957746467 1.1579970422535213
H -4.898275492957747 -1.7933092957746464 -0.48931295774647876
H -3.883675492957746 0.07871070422535364 -1.2758929577464788
H -3.8751654929577466 -4.038529295774646 -0.1505529577464788
H -4.4603554929577465 -3.7321892957746465 1.4932570422535212
H -2.7953554929577464 -4.271929295774647 1.2313670422535212
H -5.648775492957746 1.147700704225353 0.9733970422535213
H -6.189795492957747 0.5254307042253537 -0.5943629577464788
H -5.2178854929577465 2.002970704225354 -0.5139729577464787
C 3.6710445070422537 1.0263707042253536 -0.27764295774647874
O 2.7356545070422538 1.6631507042253526 -0.7327029577464788
O 3.650814507042253 0.3883007042253537 0.7790570422535212
O 4.756604507042254 0.8696707042253538 -0.8334829577464786
O 7.2522619567502264 8.961829302686814 6.610132598232745
H 7.963828217116378 8.733592675748714 7.227019019004388
H 7.479715241674544 9.854830378291144 6.310506120019204
O -7.49649897595989 3.074298252993179 -4.362489451467923
H -7.461430793895041 2.356120467540223 -5.012072585476615
H -8.310445894821099 3.5509993685176546 -4.584319124943007
O -6.5016504600743055 5.051147624433853 -6.797458125390369
H -5.6202849008704625 5.238366890349607 -6.440931752706288
H -6.788466645656386 4.2636781810977205 -6.3110526404294935
O -4.386096287002367 4.464781920965315 5.482120185333412
H -4.488087861394878 4.5097525606992015 6.4446910747825275
H -5.295914831450655 4.414813043709543 5.152430525526198
O -7.309475785502178 1.5864978219512735 5.028650815721141
H -6.972666565027518 2.4674132228142724 4.806131238097881
H -6.602489601163568 1.193503783310112 5.562212588196308
O -12.399403382002191 -5.625652883253247 -0.21102994461091562
H -13.161210045552398 -5.810014945027323 0.3587319306044403
H -12.228226583434449 -4.681674957945008 -0.07477237798486147
O -8.783380583855758 -3.4848953112312757 1.6729227792884696
H -8.024309064523708 -4.068774947677731 1.5250635368242609
H -9.193275133609225 -3.4078440053254835 0.7982734217510536
O 7.72439121111152 -2.7623764134702617 5.689824851538425
H 7.07542907522204 -3.0501313139939024 5.030269986264583
H 8.168866511224515 -2.011341847896645 5.268694547234509
O 9.354995611787063 -1.4696098333184917 -9.80395811698045
H 10.24140313357061 -1.1067269382318479 -9.950808607885612
H 8.981315266074649 -0.9022232211489545 -9.113018629138695
O 9.81026588402284 1.9725632916390596 2.371692841989342
H 9.022369219265505 2.2741015636599897 2.8484117036582512
H 9.853810594818508 1.0245606376193725 2.5675416878714383
O 2.757299454659842 11.625523852620923 -1.7018318081455184
H 2.1106500746698615 12.334800926873228 -1.835015771889899
H 2.8220948459123387 11.545758728773952 -0.7382961177893623
O 7.107657771210768 8.281232329309999 4.7956915197743175
H 8.045864166459227 8.044098580150932 4.745654515221089
H 6.688700509450579 7.498257817249083 5.183490012011426
O -1.6839219975510746 -9.765472886696935 5.899878642074313
H -1.9619876072265305 -10.662421277726185 5.660858857441626
H -0.7412085540105052 -9.85913882249995 6.103545036302786
O -1.0996831193865684 -9.23455331017352 8.32640169966389
H -1.4252697452662026 -9.765924019290377 9.068429917079486
H -1.9053860176175288 -8.963817398773662 7.861098733457228
O 5.963830387392767 6.4566837910651085 7.851866199460892
H 6.25050040235946 6.035449408209399 7.027639741429384
H 6.738383570221043 6.390339924997823 8.430336425752474
O -4.187920615824973 5.359698210010894 -10.553217277229567
H -3.8684679103943203 5.071110722360936 -11.421338575128036
H -4.067676590928978 4.581194647383508 -9.988916363041689
O 5.666151873442326 4.904473600787612 0.6591303262990214
H 6.581899343765145 5.011173883960825 0.9574405290546665
H 5.222987980490317 5.707364226037094 0.9720749734334906
O -0.7368847915755496 7.8339071865872425 5.942473303512279
H 0.20786378273020967 7.643576782391518 6.04342787490916
H -0.9632587508822985 8.327546136454195 6.744992687715575
O 1.3032081664510677 -12.924776458994089 -2.471169307958975
H 1.124439204419665 -13.092257141335617 -3.4086975668166115
H 0.8616546072211646 -12.080215180096879 -2.2959304857222467
O 4.168276000180443 6.35834524727119 6.623322041129256
H 4.169965366341314 7.151982865925622 6.067350968861553
H 4.546318601083394 6.659987428260886 7.462999199833905
O -2.9711494655825215 6.529785848333374 5.192227885219408
H -2.3185283532950605 5.965368008897295 4.75122273420302
H -3.5105033548283737 6.875882819496684 4.465401762266362
O 5.937060216104602 -7.667804153303003 7.404231072260626
H 5.73383798592341 -7.771156117242333 6.462431489753782
H 6.275346225294948 -8.536857932092776 7.667423112142698
O 8.714182833052703 6.646268486296723 1.6277014394813434
H 9.251853530965077 6.632378140647809 2.4337316100110677
H 9.300145437545055 6.278674203535562 0.9491115679699513
O 11.378365139929228 3.126317801258364 -3.9624201366672684
H 11.75331746499851 3.2069122148863425 -4.852298022288156
H 12.106724075787806 2.7681761183088724 -3.4330906175687526
C 1.5789807624857737 -9.474098076619175 -3.691171101429295
O 1.1145798739855728 -9.244086743655124 -4.7701728895503
O 2.0433816509859746 -9.704109409583223 -2.6121693133082897