146

C -5.3564454929577465 1.0091607042253532 -0.0734429577464788
C -4.079135492957747 0.16955070422535368 -0.19788295774647868
C -4.333545492957747 -1.2789292957746463 0.3017270422535212
C -3.1403854929577464 -2.1745492957746464 0.7330270422535212
C -2.905235492957746 0.902300704225353 0.41966704225352136
C -2.7423854929577463 1.056130704225354 1.8024770422535212
C -1.8861754929577463 1.3499307042253532 -0.4326129577464788
C -1.5304554929577463 1.5279207042253526 2.3254170422535214
H -3.5237954929577464 0.7301007042253529 2.484817042253521
C -0.6776454929577462 1.8010507042253527 0.08546704225352131
H -1.9759254929577463 1.2426607042253535 -1.5115229577464788
C -0.4680254929577463 1.8513207042253539 1.4698070422535212
H -1.3950654929577464 1.5446707042253527 3.404047042253521
H 0.1461845070422536 1.9972507042253538 -0.6030529577464789
C -1.8679654929577463 -2.0866092957746467 -0.08765295774647863
C -0.6628654929577462 -1.814079295774647 0.5787970422535212
C -1.8438954929577462 -2.213429295774647 -1.4808029577464787
C 0.5129345070422537 -1.5763292957746469 -0.13022295774647863
H -0.6401854929577462 -1.7032692957746463 1.6609470422535213
C -0.6547954929577462 -1.9962392957746466 -2.1933129577464787
H -2.7578654929577464 -2.4351492957746466 -2.026182957746479
C 0.5308845070422537 -1.645769295774647 -1.5261029577464789
H 1.4044045070422537 -1.2610992957746463 0.41551704225352126
H -0.6795654929577464 -2.0467992957746466 -3.2793129577464786
C 1.7843245070422535 -1.2521692957746469 -2.2771629577464787
H 1.4981245070422535 -0.9384492957746469 -3.290282957746479
H 2.241984507042254 -0.38631929577464685 -1.8135029577464787
C 0.9385645070422537 2.0647807042253534 1.9815670422535212
H 1.0508945070422537 1.5807407042253532 2.9609770422535213
H 1.6053245070422537 1.5496207042253536 1.3096170422535214
C 3.9676945070422533 -1.6881692957746468 -3.314052957746479
H 4.795084507042254 -2.398849295774647 -3.4044129577464783
H 3.548404507042253 -1.4816192957746468 -4.303802957746479
H 4.307714507042253 -0.7637192957746466 -2.851282957746479
C 2.344694507042253 -3.565079295774647 -3.101282957746479
H 1.6334345070422536 -4.047909295774646 -2.4251929577464786
H 1.8561845070422536 -3.293109295774647 -4.041792957746479
H 3.1808045070422537 -4.243519295774647 -3.298122957746479
C 3.5156645070422536 -2.648489295774647 -1.1110629577464786
H 3.9311845070422535 -1.748249295774647 -0.6771029577464787
H 2.767184507042254 -3.1044092957746465 -0.45972295774647876
H 4.319224507042254 -3.371819295774647 -1.2863129577464787
C 2.963994507042253 3.381090704225353 2.401027042253521
H 3.3337945070422537 4.369820704225353 2.6912870422535216
H 3.120994507042253 2.671350704225353 3.2183370422535216
H 3.4665445070422534 3.0664207042253535 1.4881370422535212
C 1.2973745070422538 4.282440704225354 0.8488370422535213
H 1.7592145070422538 3.7367207042253527 0.02653704225352116
H 0.23311450704225378 4.4484607042253534 0.6605570422535213
H 1.7921845070422535 5.251370704225354 0.9736770422535213
C 0.7724845070422537 4.194670704225353 3.2772470422535216
H -0.2956954929577462 4.278220704225354 3.057857042253521
H 0.9298945070422537 3.612620704225354 4.190337042253521
H 1.2046345070422537 5.193640704225353 3.3918370422535213
N 2.876084507042253 -2.324759295774647 -2.4576629577464786
N 1.4527845070422536 3.504690704225353 2.1388470422535213
C -3.593905492957746 -3.637819295774647 0.8297870422535213
H -2.8952554929577463 -1.8680692957746468 1.7595270422535212
H -5.022615492957747 -1.2402792957746467 1.1579970422535213
H -4.898275492957747 -1.7933092957746464 -0.48931295774647876
H -3.883675492957746 0.07871070422535364 -1.2758929577464788
H -3.8751654929577466 -4.038529295774646 -0.1505529577464788
H -4.4603554929577465 -3.7321892957746465 1.4932570422535212
H -2.7953554929577464 -4.271929295774647 1.2313670422535212
H -5.648775492957746 1.147700704225353 0.9733970422535213
H -6.189795492957747 0.5254307042253537 -0.5943629577464788
H -5.2178854929577465 2.002970704225354 -0.5139729577464787
C 3.6710445070422537 1.0263707042253536 -0.27764295774647874
O 2.7356545070422538 1.6631507042253526 -0.7327029577464788
O 3.650814507042253 0.3883007042253537 0.7790570422535212
O 4.756604507042254 0.8696707042253538 -0.8334829577464786
O -3.1732750486823917 12.048318028520967 4.532694313596966
H -3.1065317928159892 12.134751491316855 3.5698641358369083
H -2.691144618693084 11.230849637586036 4.728289872341486
O 10.823386242991978 1.2007292299618564 -7.919209309721006
H 10.978604743868674 1.2602637598281101 -8.8738454779229
H 10.143240743555006 0.5157020153505396 -7.834937374075182
O 4.036065961653553 -10.6741078941814 1.6511614849427354
H 3.813585251879757 -10.389482252912675 0.752018595847284
H 4.47689002185901 -11.527631604721478 1.524144290083635
O -7.221106799523293 -8.235124242872589 3.9888708915061266
H -7.100632338383203 -8.187523689084461 3.0285649775432524
H -6.362021697200899 -8.539737738701255 4.317725493764875
O -8.375449041456026 9.83942393856058 -0.9574850765188221
H -8.87185926586404 10.470885790898386 -1.4995184473045096
H -8.856868063661288 9.823520190665013 -0.11668501695543121
O -0.15918156081301404 4.407364099611866 -8.275722533688802
H -0.4131775266418829 4.7788332933472635 -9.133897366894853
H 0.7871264587149425 4.6039826318645005 -8.206409986109778
O 10.426470970604852 3.940735166518747 0.5820519598747185
H 10.546021065862252 3.6753089457103734 1.5062943809587823
H 10.426644931035867 3.1025054438320856 0.0959111921516127
O -6.725463568651719 4.946433394287014 -2.815084859773074
H -6.514520028285956 4.364830327739746 -3.560878432191591
H -6.9718968252265885 4.335629209932225 -2.1043452149462323
O 1.5466720144783013 -3.673060213635801 3.6904981652991333
H 2.2172822284305047 -4.150220730440845 4.201934514266749
H 2.0422217915071745 -3.2983148376892606 2.946886528762076
O -6.392040408461783 -5.684608780645164 0.4250071530272778
H -6.342396375697354 -5.8616788109352855 -0.5263860523741173
H -7.3208345671577435 -5.850573723999869 0.6458215380875199
O -9.657582931005432 0.15105409988608898 -2.002139279092508
H -9.778505653451688 0.49116155640750403 -1.102877376132797
H -10.534017022334297 0.2398707457270426 -2.4057936253816434
O 5.2136728003078545 6.315300395796835 3.914813584425493
H 5.0005056678735365 6.000923831289342 3.0233571882746793
H 6.028247148025503 6.826094554525707 3.7943150211609
O -3.9812544904436002 1.827725767467074 -6.678447114649477
H -3.5273191064321745 2.016950829612213 -7.513374596469646
H -4.888057786208171 1.617303965168139 -6.947505458150994
O -1.675587252856209 5.922656962848123 2.2123639968764452
H -1.9384512193340795 5.283584772500737 2.8916699865100695
H -2.4957819925166835 6.395595284732408 2.006034461844342
O -7.813994730010249 4.338579767980196 -9.164268371625171
H -8.090716129503006 4.599863242393905 -8.273132259709
H -8.319927353192114 3.5308392355307805 -9.339052116117188
O 0.14553363487369797 -5.923699244560712 15.97808868376653
H -0.3755906562304312 -6.598349523536909 16.4387879687655
H 0.5623823938655803 -6.407279757464767 15.24915182506999
O 8.205342445586078 -1.2286770065339643 1.329104347331199
H 7.4740682550668485 -1.6253515099971014 1.8259491455154224
H 8.490676281977594 -1.9342088508892727 0.7292949086669727
O 0.925356970225756 -5.19624176806458 6.219763530381599
H 1.7810555574678646 -4.831850529359043 5.94779605099021
H 1.0296336371091286 -6.15225296421211 6.100890009847118
O 7.427542879586038 4.632754607396564 0.6795573561123398
H 8.090921474071399 4.119740655486026 0.19405464507587222
H 7.940681001944978 5.095424211771645 1.3589600709062586
O 4.595488812468641 4.561868113905351 -9.992003174526035
H 4.197942112606316 4.627363444702855 -10.873271771477214
H 3.853838693613894 4.317504290881981 -9.418240708430401
O 0.6000744880591531 -5.2975171651868145 -11.783388419643975
H 0.2574476819565015 -5.277544343841249 -12.689575660255647
H -0.19273389743810398 -5.220111190873394 -11.231641083152152
O -0.16795481904410403 9.107771298187776 -5.146031788931143
H -0.1884105098526183 10.051609080772588 -4.927584628778089
H 0.530177540343769 8.750828448261444 -4.576676930374557
O -10.248351694777577 5.854016387566541 -4.238916668673231
H -9.523999733080853 6.088227979446352 -4.838438580462312
H -9.799777019812403 5.491379357412305 -3.460304384130531
O -0.24431709633373888 1.054614825131132 7.460941316792745
H 0.268304711520331 0.7090014707361079 6.71479277375574
H -1.16506227941823 0.9726366266847213 7.170304383306673
C -0.49748786162747116 12.149369343814811 -2.730972264847708
O -0.48575321582245046 11.968471738359034 -3.9141698864343124
O -0.5092225074324928 12.330266949270587 -1.5477746432611041