146

C -5.3564454929577465 1.0091607042253532 -0.0734429577464788
C -4.079135492957747 0.16955070422535368 -0.19788295774647868
C -4.333545492957747 -1.2789292957746463 0.3017270422535212
C -3.1403854929577464 -2.1745492957746464 0.7330270422535212
C -2.905235492957746 0.902300704225353 0.41966704225352136
C -2.7423854929577463 1.056130704225354 1.8024770422535212
C -1.8861754929577463 1.3499307042253532 -0.4326129577464788
C -1.5304554929577463 1.5279207042253526 2.3254170422535214
H -3.5237954929577464 0.7301007042253529 2.484817042253521
C -0.6776454929577462 1.8010507042253527 0.08546704225352131
H -1.9759254929577463 1.2426607042253535 -1.5115229577464788
C -0.4680254929577463 1.8513207042253539 1.4698070422535212
H -1.3950654929577464 1.5446707042253527 3.404047042253521
H 0.1461845070422536 1.9972507042253538 -0.6030529577464789
C -1.8679654929577463 -2.0866092957746467 -0.08765295774647863
C -0.6628654929577462 -1.814079295774647 0.5787970422535212
C -1.8438954929577462 -2.213429295774647 -1.4808029577464787
C 0.5129345070422537 -1.5763292957746469 -0.13022295774647863
H -0.6401854929577462 -1.7032692957746463 1.6609470422535213
C -0.6547954929577462 -1.9962392957746466 -2.1933129577464787
H -2.7578654929577464 -2.4351492957746466 -2.026182957746479
C 0.5308845070422537 -1.645769295774647 -1.5261029577464789
H 1.4044045070422537 -1.2610992957746463 0.41551704225352126
H -0.6795654929577464 -2.0467992957746466 -3.2793129577464786
C 1.7843245070422535 -1.2521692957746469 -2.2771629577464787
H 1.4981245070422535 -0.9384492957746469 -3.290282957746479
H 2.241984507042254 -0.38631929577464685 -1.8135029577464787
C 0.9385645070422537 2.0647807042253534 1.9815670422535212
H 1.0508945070422537 1.5807407042253532 2.9609770422535213
H 1.6053245070422537 1.5496207042253536 1.3096170422535214
C 3.9676945070422533 -1.6881692957746468 -3.314052957746479
H 4.795084507042254 -2.398849295774647 -3.4044129577464783
H 3.548404507042253 -1.4816192957746468 -4.303802957746479
H 4.307714507042253 -0.7637192957746466 -2.851282957746479
C 2.344694507042253 -3.565079295774647 -3.101282957746479
H 1.6334345070422536 -4.047909295774646 -2.4251929577464786
H 1.8561845070422536 -3.293109295774647 -4.041792957746479
H 3.1808045070422537 -4.243519295774647 -3.298122957746479
C 3.5156645070422536 -2.648489295774647 -1.1110629577464786
H 3.9311845070422535 -1.748249295774647 -0.6771029577464787
H 2.767184507042254 -3.1044092957746465 -0.45972295774647876
H 4.319224507042254 -3.371819295774647 -1.2863129577464787
C 2.963994507042253 3.381090704225353 2.401027042253521
H 3.3337945070422537 4.369820704225353 2.6912870422535216
H 3.120994507042253 2.671350704225353 3.2183370422535216
H 3.4665445070422534 3.0664207042253535 1.4881370422535212
C 1.2973745070422538 4.282440704225354 0.8488370422535213
H 1.7592145070422538 3.7367207042253527 0.02653704225352116
H 0.23311450704225378 4.4484607042253534 0.6605570422535213
H 1.7921845070422535 5.251370704225354 0.9736770422535213
C 0.7724845070422537 4.194670704225353 3.2772470422535216
H -0.2956954929577462 4.278220704225354 3.057857042253521
H 0.9298945070422537 3.612620704225354 4.190337042253521
H 1.2046345070422537 5.193640704225353 3.3918370422535213
N 2.876084507042253 -2.324759295774647 -2.4576629577464786
N 1.4527845070422536 3.504690704225353 2.1388470422535213
C -3.593905492957746 -3.637819295774647 0.8297870422535213
H -2.8952554929577463 -1.8680692957746468 1.7595270422535212
H -5.022615492957747 -1.2402792957746467 1.1579970422535213
H -4.898275492957747 -1.7933092957746464 -0.48931295774647876
H -3.883675492957746 0.07871070422535364 -1.2758929577464788
H -3.8751654929577466 -4.038529295774646 -0.1505529577464788
H -4.4603554929577465 -3.7321892957746465 1.4932570422535212
H -2.7953554929577464 -4.271929295774647 1.2313670422535212
H -5.648775492957746 1.147700704225353 0.9733970422535213
H -6.189795492957747 0.5254307042253537 -0.5943629577464788
H -5.2178854929577465 2.002970704225354 -0.5139729577464787
C 3.6710445070422537 1.0263707042253536 -0.27764295774647874
O 2.7356545070422538 1.6631507042253526 -0.7327029577464788
O 3.650814507042253 0.3883007042253537 0.7790570422535212
O 4.756604507042254 0.8696707042253538 -0.8334829577464786
O 13.748291914232354 -4.0116729068438 4.037902053692603
H 14.039968265473664 -4.207319861344821 4.941015851738581
H 13.119504545407434 -4.720835013272051 3.836215425696401
O 2.3158767942461744 -6.898842306151875 3.6967427601175213
H 1.3875729166361117 -6.969135279474178 3.4278967714629895
H 2.3801990902057777 -7.479251785441799 4.470014654662307
O 6.547087086836053 -6.602453443414754 7.100242015856717
H 6.366784905544791 -6.873449304391828 8.012941157773104
H 7.0563995695184545 -7.340585645380477 6.733194891218586
O 11.296863236234657 -12.366644462984778 5.089930871671321
H 11.069728518832623 -13.26338793385277 5.378424068309181
H 10.474232960834296 -11.867937894264273 5.206262864733195
O 4.449457406666291 6.918732636676612 -2.6496356362373414
H 4.278952226456149 6.0893817836733195 -2.178389943371912
H 4.671657335507117 7.546495652391899 -1.9457160868404095
O 3.790825485945247 3.610044013193535 6.2634120848549095
H 2.994067318808967 3.7400883577239554 5.727471557877064
H 3.513875681259184 2.9798593941564473 6.945415087717382
O -4.468510875049999 1.5178201147525088 -4.447240057410293
H -4.145596427838835 1.5987696789762937 -5.357262466329045
H -4.009770298379997 2.2269135752314364 -3.9721553366262063
O -1.377362989284849 -4.322639665615856 -11.814576388112538
H -0.5218107090123747 -4.726663559080139 -12.02377090556109
H -1.403252360280671 -3.528740135088688 -12.369567577410336
O -4.683263775179513 3.829783830706093 12.022615699379061
H -5.385041484874408 3.1877632473865303 11.837453679327982
H -4.787689816953307 4.0251286557329715 12.965959510210869
O -5.8658741802581345 6.34155550965241 1.5521439912428918
H -5.933020572947039 6.394229941712734 2.517381849522389
H -6.091263465563592 7.235150656580286 1.2527290154042712
O 2.5186041387802973 -6.4611849483433295 -9.862301979992338
H 2.1826403173275417 -6.9805178490489315 -9.116387101591616
H 3.480396770549556 -6.5642672673963745 -9.80493549785329
O 0.7784034283302537 5.66727328901241 9.591480491371398
H 1.0780359305595693 6.178050225106555 10.358484169369147
H 1.5982323509196403 5.330510752108557 9.199774637797564
O -1.0258786709659868 -8.077673550435595 6.650369414901713
H -1.578789814537949 -8.678254901787247 7.17244092784086
H -0.18786921893483877 -8.554694339641708 6.554696695322768
O 2.812964480110521 -3.421260584277797 -11.449786403820493
H 3.1771563983453945 -3.8673640987134767 -10.670476928707725
H 3.1928946474919546 -3.907660518853019 -12.196800537461037
O 3.492214057453645 -7.261824264058539 -2.764874888976668
H 3.360481362317995 -7.480858371246478 -3.699560886422164
H 4.135232868793341 -6.5371367398136115 -2.78267221369255
O -1.419889480793292 -6.2686417906463765 0.10790203963244416
H -1.7898257752092093 -6.817750537346869 0.8154287735943728
H -1.2286156560183799 -6.899531364166869 -0.6022772435623756
O 7.335321869787691 -4.8713688781422055 3.6419814907238957
H 6.6506155076161875 -5.552817515794077 3.717957202265645
H 7.0323001952464 -4.3158959299123705 2.9080948422262916
O -3.1649786581599946 4.657907018549966 -6.044649386909997
H -2.872723516769555 3.777287521116403 -5.76525076491856
H -4.03476285392676 4.500782884859564 -6.4418261784102056
O -5.838766430054568 16.143733695029848 -4.721255085628968
H -6.032396181967715 16.93351513198098 -4.194263474764561
H -4.871175434939385 16.091591536863742 -4.717967865863047
O 9.499182822562062 7.660569262201516 -3.116997001276697
H 9.461481622508536 7.640756154213914 -2.1489301558747913
H 8.695309327305216 7.1946778348593075 -3.392123382877192
O -1.4468652588166635 7.7813367643343785 11.96023311980035
H -0.8643795059954382 7.9025012749691665 12.72508399809162
H -1.3466195691922862 6.844020547346297 11.735842711398195
O -5.89043584362636 1.747226537083045 6.430801422773084
H -6.104159066112554 2.027636932850231 5.528216384665423
H -5.1910006188178075 2.3586137418629214 6.706406205802078
O -5.836926838777474 8.687748628658106 5.206674362687217
H -6.161536867003871 9.305669094166788 5.878812729975078
H -5.971072759009918 9.159361979131702 4.3708827235569485
O -5.347317020893894 5.910260890474656 7.6760687865585275
H -5.8016847378568 5.545376587019539 6.901874508761285
H -5.794877335290502 5.4938959941219565 8.427927804169155
C 9.657177136980565 -1.6077946898299285 -9.247219630312872
O 8.804042417313646 -0.8523339227457996 -8.88080669823281
O 10.510311856647483 -2.3632554569140583 -9.613632562392933