146

C -5.3564454929577465 1.0091607042253532 -0.0734429577464788
C -4.079135492957747 0.16955070422535368 -0.19788295774647868
C -4.333545492957747 -1.2789292957746463 0.3017270422535212
C -3.1403854929577464 -2.1745492957746464 0.7330270422535212
C -2.905235492957746 0.902300704225353 0.41966704225352136
C -2.7423854929577463 1.056130704225354 1.8024770422535212
C -1.8861754929577463 1.3499307042253532 -0.4326129577464788
C -1.5304554929577463 1.5279207042253526 2.3254170422535214
H -3.5237954929577464 0.7301007042253529 2.484817042253521
C -0.6776454929577462 1.8010507042253527 0.08546704225352131
H -1.9759254929577463 1.2426607042253535 -1.5115229577464788
C -0.4680254929577463 1.8513207042253539 1.4698070422535212
H -1.3950654929577464 1.5446707042253527 3.404047042253521
H 0.1461845070422536 1.9972507042253538 -0.6030529577464789
C -1.8679654929577463 -2.0866092957746467 -0.08765295774647863
C -0.6628654929577462 -1.814079295774647 0.5787970422535212
C -1.8438954929577462 -2.213429295774647 -1.4808029577464787
C 0.5129345070422537 -1.5763292957746469 -0.13022295774647863
H -0.6401854929577462 -1.7032692957746463 1.6609470422535213
C -0.6547954929577462 -1.9962392957746466 -2.1933129577464787
H -2.7578654929577464 -2.4351492957746466 -2.026182957746479
C 0.5308845070422537 -1.645769295774647 -1.5261029577464789
H 1.4044045070422537 -1.2610992957746463 0.41551704225352126
H -0.6795654929577464 -2.0467992957746466 -3.2793129577464786
C 1.7843245070422535 -1.2521692957746469 -2.2771629577464787
H 1.4981245070422535 -0.9384492957746469 -3.290282957746479
H 2.241984507042254 -0.38631929577464685 -1.8135029577464787
C 0.9385645070422537 2.0647807042253534 1.9815670422535212
H 1.0508945070422537 1.5807407042253532 2.9609770422535213
H 1.6053245070422537 1.5496207042253536 1.3096170422535214
C 3.9676945070422533 -1.6881692957746468 -3.314052957746479
H 4.795084507042254 -2.398849295774647 -3.4044129577464783
H 3.548404507042253 -1.4816192957746468 -4.303802957746479
H 4.307714507042253 -0.7637192957746466 -2.851282957746479
C 2.344694507042253 -3.565079295774647 -3.101282957746479
H 1.6334345070422536 -4.047909295774646 -2.4251929577464786
H 1.8561845070422536 -3.293109295774647 -4.041792957746479
H 3.1808045070422537 -4.243519295774647 -3.298122957746479
C 3.5156645070422536 -2.648489295774647 -1.1110629577464786
H 3.9311845070422535 -1.748249295774647 -0.6771029577464787
H 2.767184507042254 -3.1044092957746465 -0.45972295774647876
H 4.319224507042254 -3.371819295774647 -1.2863129577464787
C 2.963994507042253 3.381090704225353 2.401027042253521
H 3.3337945070422537 4.369820704225353 2.6912870422535216
H 3.120994507042253 2.671350704225353 3.2183370422535216
H 3.4665445070422534 3.0664207042253535 1.4881370422535212
C 1.2973745070422538 4.282440704225354 0.8488370422535213
H 1.7592145070422538 3.7367207042253527 0.02653704225352116
H 0.23311450704225378 4.4484607042253534 0.6605570422535213
H 1.7921845070422535 5.251370704225354 0.9736770422535213
C 0.7724845070422537 4.194670704225353 3.2772470422535216
H -0.2956954929577462 4.278220704225354 3.057857042253521
H 0.9298945070422537 3.612620704225354 4.190337042253521
H 1.2046345070422537 5.193640704225353 3.3918370422535213
N 2.876084507042253 -2.324759295774647 -2.4576629577464786
N 1.4527845070422536 3.504690704225353 2.1388470422535213
C -3.593905492957746 -3.637819295774647 0.8297870422535213
H -2.8952554929577463 -1.8680692957746468 1.7595270422535212
H -5.022615492957747 -1.2402792957746467 1.1579970422535213
H -4.898275492957747 -1.7933092957746464 -0.48931295774647876
H -3.883675492957746 0.07871070422535364 -1.2758929577464788
H -3.8751654929577466 -4.038529295774646 -0.1505529577464788
H -4.4603554929577465 -3.7321892957746465 1.4932570422535212
H -2.7953554929577464 -4.271929295774647 1.2313670422535212
H -5.648775492957746 1.147700704225353 0.9733970422535213
H -6.189795492957747 0.5254307042253537 -0.5943629577464788
H -5.2178854929577465 2.002970704225354 -0.5139729577464787
C 3.6710445070422537 1.0263707042253536 -0.27764295774647874
O 2.7356545070422538 1.6631507042253526 -0.7327029577464788
O 3.650814507042253 0.3883007042253537 0.7790570422535212
O 4.756604507042254 0.8696707042253538 -0.8334829577464786
O 3.3125967624302364 -2.1418283468298 4.591773425508459
H 2.449755505163807 -2.1094299529658755 4.151974987887396
H 3.8301906265432115 -2.753558447699635 4.046938753500169
O 11.416211298931088 -1.3004378992975902 -0.39791459708196886
H 11.921584625392263 -0.5359725590919768 -0.08302112076675172
H 11.057937950952027 -1.693852522549131 0.4119169203583697
O -11.112680903718111 -4.736113704641849 1.754397835742539
H -11.302603235454887 -4.930841995539407 0.8243560315574887
H -10.561046078218645 -3.9402454195210073 1.7189769896913367
O -11.765252607770087 -0.7116656035054127 3.5283427946387795
H -11.546298319862263 -1.3315236572102203 4.240243328396176
H -11.02784616193565 -0.8001053407923173 2.9059505623523822
O 10.345064681975046 -8.999878278862353 4.878976818415838
H 10.722243445196447 -9.740918908684867 4.381420467409214
H 9.513997638927217 -8.808042850215445 4.419097831533858
O -8.495836655925858 6.821184302557358 -3.3844151048441167
H -8.91381052643657 6.84420141230939 -4.258334673871472
H -8.931951725325066 6.081247105759633 -2.9357966307059584
O 6.124802771236051 -8.27605994181574 5.560157528361449
H 6.657809950619651 -8.375677386078568 6.363243494136023
H 5.216844918091957 -8.199433557545078 5.889858724063817
O 14.737166473895602 6.515259743053418 1.9583343689738122
H 15.16017983712679 7.346649786094446 1.6960031894314689
H 15.392726023191347 6.089631846630455 2.5310860738283
O 6.0949877198506215 -0.701569016809098 -7.045603746263927
H 6.09188535480651 -0.7986447825400824 -8.009727196833861
H 6.473124057229014 0.17867811224600555 -6.900208263375697
O 0.7614942182369453 11.633774420719092 6.928945909019136
H 1.678491318230542 11.734006594765898 7.22565652020314
H 0.2981738910917042 11.296608677151788 7.710364798040086
O 1.0362413213622155 4.3510145133622515 -5.929366347337063
H 1.7183066607552184 4.1564340762782415 -6.589588039803242
H 1.5194313206367933 4.798462771697821 -5.2185362515944185
O -2.4181540400250663 12.421815417389668 -5.57094789014111
H -1.9870981956654337 11.751330444839192 -6.121954348839548
H -2.6759033138319284 13.111808580112445 -6.2005800776504945
O -1.7658261209170574 11.025199596078295 -3.1455790902378085
H -2.4454571139062846 11.13792033246423 -3.8270210216282163
H -2.256760273017112 10.696632488922894 -2.3774715074752573
O -1.8159550399177573 -4.366816990049442 3.441403055774642
H -1.6236195405380207 -4.7249196372575355 2.5617798940508814
H -1.4473406652973726 -5.026196552290798 4.04828358769309
O -8.071540062008292 2.792641408439578 4.011189768895801
H -8.421642565496422 2.8096554913873315 3.107803851951779
H -8.731446863938956 2.2864711633701154 4.508458951604689
O -6.082718599093585 -11.556326618761819 5.121775949949784
H -6.216766635620603 -11.741236958016799 6.063480068683402
H -5.280486197903663 -12.051561706478005 4.897884622123549
O 11.668205911118463 0.31998610520567805 9.462198153740085
H 12.023772410501515 -0.3567131634758578 8.866700109089761
H 10.727205620614814 0.3609891548300732 9.234603893062127
O 5.359215483604065 8.761839683393333 0.6932889142481562
H 5.60393920426425 9.507615199257115 0.1250490552235144
H 4.442465739479882 8.569523629924145 0.44520347226035684
O -0.8117255184576461 1.8740629489665777 -10.367920993258954
H -0.9019375246656577 1.7482038321487219 -11.324471375387233
H -1.343498093014473 2.66306789443734 -10.184478715493217
O 8.713062925765955 12.241911106007556 4.922726294272481
H 9.06669948243445 12.602553711140166 5.749675781273239
H 7.837577067697956 12.649875731454381 4.8449360570510125
O 9.307923171644882 4.907617098356967 4.164295419569179
H 8.821942840651337 4.8999685894483465 5.002586523600995
H 9.730350458984132 4.0361887559926455 4.1306832887921185
O 2.465426009160778 -8.35489313028459 -8.753806141426136
H 3.417159092985546 -8.298735317683352 -8.927062581817948
H 2.17713214976222 -9.118584635472956 -9.275940108752735
O -4.0652166515230075 6.450584521710802 3.4454692925881174
H -4.0310659039883685 5.803387563355501 2.7250963472060246
H -4.784280673733672 6.132633126791493 4.011875318978273
O -2.6450024287374925 -0.9801249652202162 4.588383729235917
H -3.216060236546738 -0.9299438739971944 3.8071397243797094
H -2.0228883658970083 -1.6926921432038338 4.378183695990038
C 7.022029972429149 6.53927844767778 0.6282812753478382
O 7.603026203816362 7.146994963433538 1.4803037356688904
O 6.441033741041935 5.931561931922022 -0.22374118497321316