146

C -5.3564454929577465 1.0091607042253532 -0.0734429577464788
C -4.079135492957747 0.16955070422535368 -0.19788295774647868
C -4.333545492957747 -1.2789292957746463 0.3017270422535212
C -3.1403854929577464 -2.1745492957746464 0.7330270422535212
C -2.905235492957746 0.902300704225353 0.41966704225352136
C -2.7423854929577463 1.056130704225354 1.8024770422535212
C -1.8861754929577463 1.3499307042253532 -0.4326129577464788
C -1.5304554929577463 1.5279207042253526 2.3254170422535214
H -3.5237954929577464 0.7301007042253529 2.484817042253521
C -0.6776454929577462 1.8010507042253527 0.08546704225352131
H -1.9759254929577463 1.2426607042253535 -1.5115229577464788
C -0.4680254929577463 1.8513207042253539 1.4698070422535212
H -1.3950654929577464 1.5446707042253527 3.404047042253521
H 0.1461845070422536 1.9972507042253538 -0.6030529577464789
C -1.8679654929577463 -2.0866092957746467 -0.08765295774647863
C -0.6628654929577462 -1.814079295774647 0.5787970422535212
C -1.8438954929577462 -2.213429295774647 -1.4808029577464787
C 0.5129345070422537 -1.5763292957746469 -0.13022295774647863
H -0.6401854929577462 -1.7032692957746463 1.6609470422535213
C -0.6547954929577462 -1.9962392957746466 -2.1933129577464787
H -2.7578654929577464 -2.4351492957746466 -2.026182957746479
C 0.5308845070422537 -1.645769295774647 -1.5261029577464789
H 1.4044045070422537 -1.2610992957746463 0.41551704225352126
H -0.6795654929577464 -2.0467992957746466 -3.2793129577464786
C 1.7843245070422535 -1.2521692957746469 -2.2771629577464787
H 1.4981245070422535 -0.9384492957746469 -3.290282957746479
H 2.241984507042254 -0.38631929577464685 -1.8135029577464787
C 0.9385645070422537 2.0647807042253534 1.9815670422535212
H 1.0508945070422537 1.5807407042253532 2.9609770422535213
H 1.6053245070422537 1.5496207042253536 1.3096170422535214
C 3.9676945070422533 -1.6881692957746468 -3.314052957746479
H 4.795084507042254 -2.398849295774647 -3.4044129577464783
H 3.548404507042253 -1.4816192957746468 -4.303802957746479
H 4.307714507042253 -0.7637192957746466 -2.851282957746479
C 2.344694507042253 -3.565079295774647 -3.101282957746479
H 1.6334345070422536 -4.047909295774646 -2.4251929577464786
H 1.8561845070422536 -3.293109295774647 -4.041792957746479
H 3.1808045070422537 -4.243519295774647 -3.298122957746479
C 3.5156645070422536 -2.648489295774647 -1.1110629577464786
H 3.9311845070422535 -1.748249295774647 -0.6771029577464787
H 2.767184507042254 -3.1044092957746465 -0.45972295774647876
H 4.319224507042254 -3.371819295774647 -1.2863129577464787
C 2.963994507042253 3.381090704225353 2.401027042253521
H 3.3337945070422537 4.369820704225353 2.6912870422535216
H 3.120994507042253 2.671350704225353 3.2183370422535216
H 3.4665445070422534 3.0664207042253535 1.4881370422535212
C 1.2973745070422538 4.282440704225354 0.8488370422535213
H 1.7592145070422538 3.7367207042253527 0.02653704225352116
H 0.23311450704225378 4.4484607042253534 0.6605570422535213
H 1.7921845070422535 5.251370704225354 0.9736770422535213
C 0.7724845070422537 4.194670704225353 3.2772470422535216
H -0.2956954929577462 4.278220704225354 3.057857042253521
H 0.9298945070422537 3.612620704225354 4.190337042253521
H 1.2046345070422537 5.193640704225353 3.3918370422535213
N 2.876084507042253 -2.324759295774647 -2.4576629577464786
N 1.4527845070422536 3.504690704225353 2.1388470422535213
C -3.593905492957746 -3.637819295774647 0.8297870422535213
H -2.8952554929577463 -1.8680692957746468 1.7595270422535212
H -5.022615492957747 -1.2402792957746467 1.1579970422535213
H -4.898275492957747 -1.7933092957746464 -0.48931295774647876
H -3.883675492957746 0.07871070422535364 -1.2758929577464788
H -3.8751654929577466 -4.038529295774646 -0.1505529577464788
H -4.4603554929577465 -3.7321892957746465 1.4932570422535212
H -2.7953554929577464 -4.271929295774647 1.2313670422535212
H -5.648775492957746 1.147700704225353 0.9733970422535213
H -6.189795492957747 0.5254307042253537 -0.5943629577464788
H -5.2178854929577465 2.002970704225354 -0.5139729577464787
C 3.6710445070422537 1.0263707042253536 -0.27764295774647874
O 2.7356545070422538 1.6631507042253526 -0.7327029577464788
O 3.650814507042253 0.3883007042253537 0.7790570422535212
O 4.756604507042254 0.8696707042253538 -0.8334829577464786
O 8.30904977939522 -4.065677593317885 0.30663771233512105
H 8.116035318388485 -4.555362522397736 -0.5069478363162434
H 9.071906858828452 -3.515600124450446 0.07334433715486982
O -10.627960949630076 -4.702233182402308 4.322771190072406
H -10.611210165491704 -3.738301070762995 4.22519223598227
H -10.55267780310787 -5.03079657171342 3.414288668856885
O 2.092750995120555 -0.44972315073721225 -7.3724193593295215
H 2.4183075086152 -0.8793193035482584 -8.1776692950086
H 1.2497052152947714 -0.05531883040480662 -7.642013479297056
O -0.7778409218444771 -3.451682987306853 12.533838522831385
H -1.1595367073844223 -2.6276134006972147 12.195925811282875
H 0.07371883814168534 -3.179269316292734 12.907467632132196
O 1.2151026776088454 1.6336747651404178 -8.680529548624888
H 0.5391542350347145 1.6740972703433192 -7.987401074996274
H 1.4265840883424707 2.562950095872711 -8.85570065613552
O -5.751537434846578 -3.7917702899378556 6.11254802737289
H -4.927627342885234 -4.007658115506896 5.650452838006755
H -6.39547156697996 -4.417022980877243 5.747349656283037
O -8.222123134030534 -10.678257371701223 -5.801945774572401
H -8.140458821990364 -11.608218163172797 -5.542193540001509
H -7.664771861674067 -10.605909177734988 -6.591304528455862
O 1.8717089843877224 -7.736787966884389 5.0393999271403365
H 2.0355130990931203 -7.835049287528326 5.9893895490683295
H 2.7451519945676566 -7.857553983159809 4.637560628936713
O -3.958767763638439 10.937602958971329 3.2540005605623823
H -3.950788926382325 11.050818874930115 4.216334105353196
H -4.2549719629644995 11.797492309302992 2.9196125796363366
O -9.188064538007378 -5.789241950296133 -4.4181228727984765
H -8.772464552179871 -5.951810229559617 -3.5579975544538263
H -10.069965567012417 -5.456868358186168 -4.192866763874049
O 6.396605888344064 -2.154189508041916 -2.8937812359604487
H 6.7957877695269095 -2.040626135524399 -3.769409320855956
H 6.857383202775255 -1.5056323993923242 -2.340590592849359
O -3.812972213166082 -3.058965291817824 -4.474345655828649
H -3.1327683818876215 -2.4296150066915354 -4.1911349155210775
H -4.333499883296203 -2.5640519464152387 -5.124786790345316
O 0.6903374385334953 -6.803922517532282 0.281053567940031
H 0.4385098490169841 -7.107542915691326 1.1661325903329747
H 1.3410122867660226 -7.458297494314883 -0.01454341434894113
O -6.070566324415432 -9.071128099374372 -4.465052243637963
H -5.695617589534271 -8.963858665200414 -3.5779930169777487
H -6.326337167042549 -8.172309948643923 -4.721312174722229
O -4.480450279867206 -9.70250511255248 5.018546862838581
H -4.553685712198224 -9.919017010801848 5.9602084401941315
H -4.797595225571774 -10.500491987653906 4.569550231581831
O -4.005539443049087 -10.213523236411543 -3.62486792129904
H -4.0294211511408315 -10.054674959913466 -2.6692716435895605
H -3.089182037954722 -10.478509113786954 -3.7952602193066243
O 8.31446270811844 -3.16655414755728 6.506180346496655
H 7.801905924191835 -3.671058976483039 7.155586057698372
H 7.860380152915425 -2.311638749385456 6.46269886389758
O -7.999158513940832 1.9229123716894807 4.809792765368087
H -8.841929240001575 2.3492477138263492 5.026456182308018
H -8.185137969003819 1.4394738276975227 3.990853963761147
O 5.239412657829451 8.60860249078146 -4.859894080242935
H 5.016857078639737 8.48980219903235 -5.7954809878853295
H 4.606026254688635 8.041609228622573 -4.394811023915617
O -7.693907924310873 11.881797784397836 4.689912491543584
H -8.04254948778162 12.229351876080779 5.52455167734492
H -8.476959792183665 11.538127614448937 4.234190503037187
O -4.590440320351677 9.794498010706157 -5.004036372031011
H -4.834027194941585 9.527280138713195 -5.903051055067429
H -3.8007865792254254 10.342147140272314 -5.128492566375623
O -1.034665676146814 8.55486059917359 6.780432786443271
H -1.9629016711602367 8.362541533342656 6.579538109113682
H -0.749997717593521 9.123750099309596 6.049480780968146
O -4.269722215016573 -7.266987598045593 -11.978082744764357
H -4.697888999896984 -6.846034032755663 -12.738634292718125
H -4.980577809352112 -7.7776830526662435 -11.562346745683602
O 5.532416958520789 5.58958964623722 2.536424456604881
H 5.509321382663945 6.490265753577751 2.179750234180903
H 5.466362029721793 5.715651469702406 3.494916557430961
C 2.3005666353506866 -10.559085005005416 1.7949744265297385
O 2.886863667437689 -11.008200001744083 2.7369774876555493
O 1.714269603263684 -10.10997000826675 0.8529713654039268