146

C -5.3564454929577465 1.0091607042253532 -0.0734429577464788
C -4.079135492957747 0.16955070422535368 -0.19788295774647868
C -4.333545492957747 -1.2789292957746463 0.3017270422535212
C -3.1403854929577464 -2.1745492957746464 0.7330270422535212
C -2.905235492957746 0.902300704225353 0.41966704225352136
C -2.7423854929577463 1.056130704225354 1.8024770422535212
C -1.8861754929577463 1.3499307042253532 -0.4326129577464788
C -1.5304554929577463 1.5279207042253526 2.3254170422535214
H -3.5237954929577464 0.7301007042253529 2.484817042253521
C -0.6776454929577462 1.8010507042253527 0.08546704225352131
H -1.9759254929577463 1.2426607042253535 -1.5115229577464788
C -0.4680254929577463 1.8513207042253539 1.4698070422535212
H -1.3950654929577464 1.5446707042253527 3.404047042253521
H 0.1461845070422536 1.9972507042253538 -0.6030529577464789
C -1.8679654929577463 -2.0866092957746467 -0.08765295774647863
C -0.6628654929577462 -1.814079295774647 0.5787970422535212
C -1.8438954929577462 -2.213429295774647 -1.4808029577464787
C 0.5129345070422537 -1.5763292957746469 -0.13022295774647863
H -0.6401854929577462 -1.7032692957746463 1.6609470422535213
C -0.6547954929577462 -1.9962392957746466 -2.1933129577464787
H -2.7578654929577464 -2.4351492957746466 -2.026182957746479
C 0.5308845070422537 -1.645769295774647 -1.5261029577464789
H 1.4044045070422537 -1.2610992957746463 0.41551704225352126
H -0.6795654929577464 -2.0467992957746466 -3.2793129577464786
C 1.7843245070422535 -1.2521692957746469 -2.2771629577464787
H 1.4981245070422535 -0.9384492957746469 -3.290282957746479
H 2.241984507042254 -0.38631929577464685 -1.8135029577464787
C 0.9385645070422537 2.0647807042253534 1.9815670422535212
H 1.0508945070422537 1.5807407042253532 2.9609770422535213
H 1.6053245070422537 1.5496207042253536 1.3096170422535214
C 3.9676945070422533 -1.6881692957746468 -3.314052957746479
H 4.795084507042254 -2.398849295774647 -3.4044129577464783
H 3.548404507042253 -1.4816192957746468 -4.303802957746479
H 4.307714507042253 -0.7637192957746466 -2.851282957746479
C 2.344694507042253 -3.565079295774647 -3.101282957746479
H 1.6334345070422536 -4.047909295774646 -2.4251929577464786
H 1.8561845070422536 -3.293109295774647 -4.041792957746479
H 3.1808045070422537 -4.243519295774647 -3.298122957746479
C 3.5156645070422536 -2.648489295774647 -1.1110629577464786
H 3.9311845070422535 -1.748249295774647 -0.6771029577464787
H 2.767184507042254 -3.1044092957746465 -0.45972295774647876
H 4.319224507042254 -3.371819295774647 -1.2863129577464787
C 2.963994507042253 3.381090704225353 2.401027042253521
H 3.3337945070422537 4.369820704225353 2.6912870422535216
H 3.120994507042253 2.671350704225353 3.2183370422535216
H 3.4665445070422534 3.0664207042253535 1.4881370422535212
C 1.2973745070422538 4.282440704225354 0.8488370422535213
H 1.7592145070422538 3.7367207042253527 0.02653704225352116
H 0.23311450704225378 4.4484607042253534 0.6605570422535213
H 1.7921845070422535 5.251370704225354 0.9736770422535213
C 0.7724845070422537 4.194670704225353 3.2772470422535216
H -0.2956954929577462 4.278220704225354 3.057857042253521
H 0.9298945070422537 3.612620704225354 4.190337042253521
H 1.2046345070422537 5.193640704225353 3.3918370422535213
N 2.876084507042253 -2.324759295774647 -2.4576629577464786
N 1.4527845070422536 3.504690704225353 2.1388470422535213
C -3.593905492957746 -3.637819295774647 0.8297870422535213
H -2.8952554929577463 -1.8680692957746468 1.7595270422535212
H -5.022615492957747 -1.2402792957746467 1.1579970422535213
H -4.898275492957747 -1.7933092957746464 -0.48931295774647876
H -3.883675492957746 0.07871070422535364 -1.2758929577464788
H -3.8751654929577466 -4.038529295774646 -0.1505529577464788
H -4.4603554929577465 -3.7321892957746465 1.4932570422535212
H -2.7953554929577464 -4.271929295774647 1.2313670422535212
H -5.648775492957746 1.147700704225353 0.9733970422535213
H -6.189795492957747 0.5254307042253537 -0.5943629577464788
H -5.2178854929577465 2.002970704225354 -0.5139729577464787
C 3.6710445070422537 1.0263707042253536 -0.27764295774647874
O 2.7356545070422538 1.6631507042253526 -0.7327029577464788
O 3.650814507042253 0.3883007042253537 0.7790570422535212
O 4.756604507042254 0.8696707042253538 -0.8334829577464786
O -10.178729200683625 1.3118448596410335 3.2114367089402482
H -10.711747088139903 1.1893116786677 4.01133977063723
H -10.18331673748703 2.2707096379284017 3.071725450388933
O -9.902394988587679 -9.272983722789702 -2.4600809265004964
H -9.575394341967167 -9.729943444671477 -1.6706344453584876
H -9.484379022484797 -9.74676267654629 -3.1947632383607916
O -7.62952732091785 0.6566895770456944 -3.6994056471647268
H -7.657393712539612 0.7110372026341993 -2.7323290438333903
H -6.685259839841444 0.7118775874307746 -3.9098222624577073
O -3.722225749321173 -0.9384681774886277 -5.891978489746896
H -3.799376930772993 -1.2915086746746773 -6.79107662646347
H -4.48297052534288 -0.34421176454674474 -5.807784394151483
O 0.38246439886339156 3.8498333643483047 -5.5028367612698865
H 0.8888756156481634 4.315086383915303 -6.185518725436481
H 0.36671028276625184 4.470790634601167 -4.759112470523571
O -0.12741662587735902 9.537310361118584 -1.7254362554371458
H 0.5127602681845156 9.65990999804033 -1.008421450683473
H 0.4112607136810005 9.230722742999468 -2.4702803334577568
O 3.6586668722203446 4.157753296463246 -0.38185024551797936
H 3.7336258755779212 4.2660322563962145 -1.3418628347851589
H 3.6080338335239452 5.065702602190607 -0.04714694717514441
O -2.0911791534289677 6.866447547221761 2.329070308259589
H -2.3259609584859633 6.844999333318216 1.3891847646775382
H -2.9406268360486374 6.985600300865572 2.779850964556162
O -3.6937390215786423 1.1754867957519042 -7.755444574428584
H -4.545456077966678 0.8097086337913781 -7.47304105286683
H -3.247270854762567 1.3974327250421883 -6.9245606325983395
O -4.010916541036254 -2.401094443153108 11.317437038750176
H -4.2681423164628445 -2.3557009483711107 12.250572445852312
H -4.4250340015092 -1.619268195987496 10.922194844046254
O 7.216881198430578 5.591004166228304 2.2514511601266003
H 7.226014175514039 5.388247391359593 3.1989603346861046
H 8.036507313468201 5.1948651194453515 1.9194137654521026
O 11.47060975936395 2.1933497829496424 5.513340138061297
H 11.958998213511325 2.596431409660191 6.2468040274000405
H 11.075679562420783 1.399161771134999 5.903541990609863
O 2.4144080479562713 -1.4763756467018068 8.009330492556538
H 2.285487118805226 -1.5777150335951529 7.054303226144258
H 3.295950541406494 -1.0814310951698345 8.085904494389885
O 9.928541899443589 7.87445736139367 -5.6436660233875235
H 9.480508281644557 8.41755968077749 -6.309453605805392
H 9.585250549985549 8.206996998698548 -4.800736380233116
O 0.6923573414670399 -5.1629098924047625 -7.49006109207495
H 0.26888831271593583 -5.508797611838584 -8.290062982156133
H 0.15313287222736482 -4.393213328448814 -7.253912588993524
O -11.025426464506985 5.935873776975193 -1.9309840932121216
H -11.410999692680255 5.364857530058128 -1.2496316965972762
H -11.712051869534324 6.599303889629472 -2.096416807916836
O -6.955429394572727 -4.855021853866421 -9.737490130695427
H -6.934866477973296 -3.9262479426434598 -9.461947855912538
H -6.460365567758078 -5.316011294506621 -9.043687213940338
O -6.144352090408154 6.6191911508607495 -2.24473598011146
H -6.49345922469991 7.066543773905021 -3.030208574376855
H -5.760967698172794 7.33642262437216 -1.7178988463642533
O 8.424577563673516 -8.711258151321 -3.2260051370690714
H 7.589767371281765 -8.957902228071115 -3.6517116075189966
H 8.162693332877513 -8.062518586288267 -2.5555459133115597
O 0.12539660482507475 -9.435245749652863 11.751850559173285
H 0.21403680371813838 -9.359296096827578 12.713797502760048
H 1.0382737709789875 -9.522756449210414 11.438866372228084
O -2.5369142703495027 10.441645626994772 9.767957382455768
H -2.4197973234140213 10.646983828274383 10.70768457730317
H -3.0367831833409715 11.197075789441005 9.423837804705265
O 9.122231684370504 -2.1720525855871555 -8.200338594296618
H 9.93357185126006 -2.4513716956869183 -8.650533357954199
H 8.88487460928749 -1.341574732916422 -8.639576683983115
O 11.033497802023515 -6.1398717860817875 2.5134077485894366
H 10.924100369733083 -5.85459681521292 3.432982514284988
H 10.379146320359094 -5.616612663866027 2.02659569680603
O -5.535491546617381 -9.466700036270797 -6.2699945803431
H -5.195032700719885 -9.588827860339533 -5.371028548872288
H -6.076974499900614 -10.255326338197923 -6.42435361478039
C 0.4676965915786916 3.595571856157364 6.867374815053305
O 0.02845191116489021 4.417760306062928 6.116449705025639
O 0.906941271992493 2.7733834062517984 7.61829992508097