146

C -5.3564454929577465 1.0091607042253532 -0.0734429577464788
C -4.079135492957747 0.16955070422535368 -0.19788295774647868
C -4.333545492957747 -1.2789292957746463 0.3017270422535212
C -3.1403854929577464 -2.1745492957746464 0.7330270422535212
C -2.905235492957746 0.902300704225353 0.41966704225352136
C -2.7423854929577463 1.056130704225354 1.8024770422535212
C -1.8861754929577463 1.3499307042253532 -0.4326129577464788
C -1.5304554929577463 1.5279207042253526 2.3254170422535214
H -3.5237954929577464 0.7301007042253529 2.484817042253521
C -0.6776454929577462 1.8010507042253527 0.08546704225352131
H -1.9759254929577463 1.2426607042253535 -1.5115229577464788
C -0.4680254929577463 1.8513207042253539 1.4698070422535212
H -1.3950654929577464 1.5446707042253527 3.404047042253521
H 0.1461845070422536 1.9972507042253538 -0.6030529577464789
C -1.8679654929577463 -2.0866092957746467 -0.08765295774647863
C -0.6628654929577462 -1.814079295774647 0.5787970422535212
C -1.8438954929577462 -2.213429295774647 -1.4808029577464787
C 0.5129345070422537 -1.5763292957746469 -0.13022295774647863
H -0.6401854929577462 -1.7032692957746463 1.6609470422535213
C -0.6547954929577462 -1.9962392957746466 -2.1933129577464787
H -2.7578654929577464 -2.4351492957746466 -2.026182957746479
C 0.5308845070422537 -1.645769295774647 -1.5261029577464789
H 1.4044045070422537 -1.2610992957746463 0.41551704225352126
H -0.6795654929577464 -2.0467992957746466 -3.2793129577464786
C 1.7843245070422535 -1.2521692957746469 -2.2771629577464787
H 1.4981245070422535 -0.9384492957746469 -3.290282957746479
H 2.241984507042254 -0.38631929577464685 -1.8135029577464787
C 0.9385645070422537 2.0647807042253534 1.9815670422535212
H 1.0508945070422537 1.5807407042253532 2.9609770422535213
H 1.6053245070422537 1.5496207042253536 1.3096170422535214
C 3.9676945070422533 -1.6881692957746468 -3.314052957746479
H 4.795084507042254 -2.398849295774647 -3.4044129577464783
H 3.548404507042253 -1.4816192957746468 -4.303802957746479
H 4.307714507042253 -0.7637192957746466 -2.851282957746479
C 2.344694507042253 -3.565079295774647 -3.101282957746479
H 1.6334345070422536 -4.047909295774646 -2.4251929577464786
H 1.8561845070422536 -3.293109295774647 -4.041792957746479
H 3.1808045070422537 -4.243519295774647 -3.298122957746479
C 3.5156645070422536 -2.648489295774647 -1.1110629577464786
H 3.9311845070422535 -1.748249295774647 -0.6771029577464787
H 2.767184507042254 -3.1044092957746465 -0.45972295774647876
H 4.319224507042254 -3.371819295774647 -1.2863129577464787
C 2.963994507042253 3.381090704225353 2.401027042253521
H 3.3337945070422537 4.369820704225353 2.6912870422535216
H 3.120994507042253 2.671350704225353 3.2183370422535216
H 3.4665445070422534 3.0664207042253535 1.4881370422535212
C 1.2973745070422538 4.282440704225354 0.8488370422535213
H 1.7592145070422538 3.7367207042253527 0.02653704225352116
H 0.23311450704225378 4.4484607042253534 0.6605570422535213
H 1.7921845070422535 5.251370704225354 0.9736770422535213
C 0.7724845070422537 4.194670704225353 3.2772470422535216
H -0.2956954929577462 4.278220704225354 3.057857042253521
H 0.9298945070422537 3.612620704225354 4.190337042253521
H 1.2046345070422537 5.193640704225353 3.3918370422535213
N 2.876084507042253 -2.324759295774647 -2.4576629577464786
N 1.4527845070422536 3.504690704225353 2.1388470422535213
C -3.593905492957746 -3.637819295774647 0.8297870422535213
H -2.8952554929577463 -1.8680692957746468 1.7595270422535212
H -5.022615492957747 -1.2402792957746467 1.1579970422535213
H -4.898275492957747 -1.7933092957746464 -0.48931295774647876
H -3.883675492957746 0.07871070422535364 -1.2758929577464788
H -3.8751654929577466 -4.038529295774646 -0.1505529577464788
H -4.4603554929577465 -3.7321892957746465 1.4932570422535212
H -2.7953554929577464 -4.271929295774647 1.2313670422535212
H -5.648775492957746 1.147700704225353 0.9733970422535213
H -6.189795492957747 0.5254307042253537 -0.5943629577464788
H -5.2178854929577465 2.002970704225354 -0.5139729577464787
C 3.6710445070422537 1.0263707042253536 -0.27764295774647874
O 2.7356545070422538 1.6631507042253526 -0.7327029577464788
O 3.650814507042253 0.3883007042253537 0.7790570422535212
O 4.756604507042254 0.8696707042253538 -0.8334829577464786
O 3.7034101749690866 13.453367981487439 5.244913676751214
H 3.778730079775804 14.392962101935408 5.02028696939094
H 4.6187070006569275 13.175736016124967 5.400201013629443
O -5.724626149431151 2.9258943681482785 -13.533287028564189
H -6.326398815246531 2.620388911245925 -14.228631138613547
H -5.5399680548792904 3.84681774114346 -13.771537891076067
O -5.657420459903927 -14.151546746768116 2.7796762613766806
H -5.387655589760968 -14.998104332782258 3.1663732038247225
H -5.934968202780445 -13.623326842385389 3.5431636072692316
O 7.433753926872479 4.9472855199053525 -4.822371410214543
H 6.650446360397057 5.481126429690702 -5.023395031318885
H 7.519528610168952 5.01095561339667 -3.85927703934521
O 6.257989585891626 -0.6079151577517528 8.562510964403097
H 6.6869781238520964 -0.3564506747228828 9.394197086070138
H 6.892677124066715 -0.33949355436311685 7.881274209655148
O 0.9791304191479802 6.522123626730948 7.856330289996048
H 0.8576688223932742 7.271288587413821 8.458797134808965
H 0.2100927120168673 6.5673885582794505 7.268542883459954
O 6.395186645546767 10.421614075665035 6.658455565414556
H 5.990168563150441 11.139336883162123 7.168163012319642
H 5.882502950543363 9.638425053349195 6.908919791406248
O -7.293326311271139 6.7190460020275555 5.467704721721334
H -7.350988187466383 6.783367657918598 4.502559556724337
H -6.638183815182149 6.0208677048798105 5.617027591738497
O -0.12400770633358682 -6.3777802938480015 -9.292048418873275
H 0.42062921190007435 -6.366997114918167 -10.0934357829171
H 0.1730503910653527 -5.59975119400382 -8.796680726279808
O 2.961551690059542 -4.301363002928553 10.865194256340986
H 2.5708880688726063 -3.97806726565146 11.690923726712228
H 3.2333732014465957 -3.4941837479265074 10.403093985250823
O -5.37721207111176 -0.8769429334106555 -6.502177615870212
H -4.542170182296452 -0.7131465264174719 -6.965689361007147
H -6.042123527212398 -0.8662992321303813 -7.206976460555122
O 1.3686702060038547 -3.3372953117775586 3.543602912505551
H 1.4699643191813763 -3.3849627053997997 2.5810881442443865
H 0.49075117093394305 -2.9463048132378122 3.667484074162826
O -3.236918433506786 -1.1580904211656673 7.71065685699851
H -3.9644487751291435 -1.6839472789832097 7.345771225594479
H -3.682185733220458 -0.44154358749487077 8.18737439523478
O -4.657023497847455 2.4388322997798695 7.5177149512506745
H -4.2864727488408185 2.4836149250532156 8.41194871027806
H -5.412618186859043 3.0447945181476888 7.546842260570823
O 0.5073649776214659 9.341485592081986 10.349305929355294
H 0.6758008324453755 9.525424352386377 11.285662299637156
H -0.36121220134819065 8.911912429328893 10.347716490643604
O 5.7403304574381995 -5.9773520678301475 -2.2767920174927703
H 5.347763590212398 -6.062162973038491 -3.1586455892461895
H 6.021428578535253 -6.87852119891734 -2.058068475569958
O -9.087171297096972 5.991916054091797 -3.873567458484641
H -8.770819431493818 6.207824032410582 -2.9834704980765627
H -8.439040849103604 6.4100226542034475 -4.460147152666931
O 6.231408771539335 4.355965571865018 -1.4259266277932112
H 6.310115016237618 4.3156761948929425 -0.4609657736396879
H 6.675954988340435 3.550753678452001 -1.730843685587709
O -4.690898834784789 5.6299125726965205 -0.8418679632891718
H -4.677447186830087 5.676645757317817 -1.8096501802793663
H -4.205301751029766 6.420582017079419 -0.5625845118140519
O -1.2734889514019212 9.084529160399669 -5.3048276151371585
H -1.24663581118351 9.610300549017428 -4.491310121366209
H -1.3034835221111223 9.747368160882548 -6.011019323858542
O -4.9063360264781455 11.269966034176583 -1.0726148575111365
H -5.3907375887971565 11.96660494258868 -0.6046226411129298
H -5.570979204002331 10.874373364321858 -1.656325256962579
O 5.863755694665532 -6.569184864609138 -6.955936235504697
H 5.46489623287936 -7.449538071746977 -6.886246083217817
H 6.675602084441073 -6.6378547191030695 -6.43138706260267
O -2.956533637788268 -3.3987496211804435 6.789050527008465
H -2.4256639700462643 -3.6372758637148808 7.56380854367812
H -2.4314813962560344 -2.714632900177933 6.3471609480334115
O -6.773974638265313 6.181209318427764 -2.3496366234650297
H -6.230958967284611 6.2498411775508735 -3.149255911553233
H -6.126552608652622 6.0979339743954535 -1.6334858872729312
C -8.8344085425766 -2.6059726677934143 -4.077930453892304
O -8.68983201033357 -1.4558270357105982 -4.376394704055366
O -8.97898507481963 -3.756118299876231 -3.779466203729239