146

C -5.3564454929577465 1.0091607042253532 -0.0734429577464788
C -4.079135492957747 0.16955070422535368 -0.19788295774647868
C -4.333545492957747 -1.2789292957746463 0.3017270422535212
C -3.1403854929577464 -2.1745492957746464 0.7330270422535212
C -2.905235492957746 0.902300704225353 0.41966704225352136
C -2.7423854929577463 1.056130704225354 1.8024770422535212
C -1.8861754929577463 1.3499307042253532 -0.4326129577464788
C -1.5304554929577463 1.5279207042253526 2.3254170422535214
H -3.5237954929577464 0.7301007042253529 2.484817042253521
C -0.6776454929577462 1.8010507042253527 0.08546704225352131
H -1.9759254929577463 1.2426607042253535 -1.5115229577464788
C -0.4680254929577463 1.8513207042253539 1.4698070422535212
H -1.3950654929577464 1.5446707042253527 3.404047042253521
H 0.1461845070422536 1.9972507042253538 -0.6030529577464789
C -1.8679654929577463 -2.0866092957746467 -0.08765295774647863
C -0.6628654929577462 -1.814079295774647 0.5787970422535212
C -1.8438954929577462 -2.213429295774647 -1.4808029577464787
C 0.5129345070422537 -1.5763292957746469 -0.13022295774647863
H -0.6401854929577462 -1.7032692957746463 1.6609470422535213
C -0.6547954929577462 -1.9962392957746466 -2.1933129577464787
H -2.7578654929577464 -2.4351492957746466 -2.026182957746479
C 0.5308845070422537 -1.645769295774647 -1.5261029577464789
H 1.4044045070422537 -1.2610992957746463 0.41551704225352126
H -0.6795654929577464 -2.0467992957746466 -3.2793129577464786
C 1.7843245070422535 -1.2521692957746469 -2.2771629577464787
H 1.4981245070422535 -0.9384492957746469 -3.290282957746479
H 2.241984507042254 -0.38631929577464685 -1.8135029577464787
C 0.9385645070422537 2.0647807042253534 1.9815670422535212
H 1.0508945070422537 1.5807407042253532 2.9609770422535213
H 1.6053245070422537 1.5496207042253536 1.3096170422535214
C 3.9676945070422533 -1.6881692957746468 -3.314052957746479
H 4.795084507042254 -2.398849295774647 -3.4044129577464783
H 3.548404507042253 -1.4816192957746468 -4.303802957746479
H 4.307714507042253 -0.7637192957746466 -2.851282957746479
C 2.344694507042253 -3.565079295774647 -3.101282957746479
H 1.6334345070422536 -4.047909295774646 -2.4251929577464786
H 1.8561845070422536 -3.293109295774647 -4.041792957746479
H 3.1808045070422537 -4.243519295774647 -3.298122957746479
C 3.5156645070422536 -2.648489295774647 -1.1110629577464786
H 3.9311845070422535 -1.748249295774647 -0.6771029577464787
H 2.767184507042254 -3.1044092957746465 -0.45972295774647876
H 4.319224507042254 -3.371819295774647 -1.2863129577464787
C 2.963994507042253 3.381090704225353 2.401027042253521
H 3.3337945070422537 4.369820704225353 2.6912870422535216
H 3.120994507042253 2.671350704225353 3.2183370422535216
H 3.4665445070422534 3.0664207042253535 1.4881370422535212
C 1.2973745070422538 4.282440704225354 0.8488370422535213
H 1.7592145070422538 3.7367207042253527 0.02653704225352116
H 0.23311450704225378 4.4484607042253534 0.6605570422535213
H 1.7921845070422535 5.251370704225354 0.9736770422535213
C 0.7724845070422537 4.194670704225353 3.2772470422535216
H -0.2956954929577462 4.278220704225354 3.057857042253521
H 0.9298945070422537 3.612620704225354 4.190337042253521
H 1.2046345070422537 5.193640704225353 3.3918370422535213
N 2.876084507042253 -2.324759295774647 -2.4576629577464786
N 1.4527845070422536 3.504690704225353 2.1388470422535213
C -3.593905492957746 -3.637819295774647 0.8297870422535213
H -2.8952554929577463 -1.8680692957746468 1.7595270422535212
H -5.022615492957747 -1.2402792957746467 1.1579970422535213
H -4.898275492957747 -1.7933092957746464 -0.48931295774647876
H -3.883675492957746 0.07871070422535364 -1.2758929577464788
H -3.8751654929577466 -4.038529295774646 -0.1505529577464788
H -4.4603554929577465 -3.7321892957746465 1.4932570422535212
H -2.7953554929577464 -4.271929295774647 1.2313670422535212
H -5.648775492957746 1.147700704225353 0.9733970422535213
H -6.189795492957747 0.5254307042253537 -0.5943629577464788
H -5.2178854929577465 2.002970704225354 -0.5139729577464787
C 3.6710445070422537 1.0263707042253536 -0.27764295774647874
O 2.7356545070422538 1.6631507042253526 -0.7327029577464788
O 3.650814507042253 0.3883007042253537 0.7790570422535212
O 4.756604507042254 0.8696707042253538 -0.8334829577464786
O 0.2808707775717738 1.198178448117168 6.47622617161089
H 1.1247257604670908 0.7928697268992446 6.2260243226020595
H 0.5292763482833641 2.0798972175680834 6.792182859049868
O 1.3504264642434647 -9.128636508478973 1.8356803823945194
H 0.9424395094466811 -9.277996002606518 0.969536200904155
H 0.8232552506309854 -9.672887137612047 2.4397033194810183
O 2.4954696481875205 -4.001572931318723 6.986936161192497
H 2.392121965768034 -3.6749701211858996 6.0805051280455364
H 2.405413273952677 -3.2067300249097457 7.533815076393112
O -9.648899617968276 2.318187293787338 5.5571164794007615
H -10.49952498092808 2.169805900504293 5.117358806452484
H -9.126463382250753 1.53536245364781 5.326448766944447
O 5.514794055806485 6.872690784447861 1.9464483321984791
H 5.309147193026623 7.192663193791704 2.837680278432173
H 4.864112410898697 7.316930286913634 1.3823325588601891
O -3.1523408236888937 -8.456551743208006 4.833715642042874
H -3.981577130106115 -8.3152311973593 5.314717729710432
H -2.4750785140739424 -8.090670784500277 5.4222807041474255
O -5.64698425030584 -0.9154787353758151 -10.339500533624228
H -5.879092919165702 -1.0474435992312094 -9.408008076624318
H -4.6812509890015 -0.8364132779640512 -10.331141959897149
O -9.453745659232744 -2.8887566237005866 -3.5488894945167377
H -9.833906126740615 -3.0193215742755424 -2.667187634744651
H -9.529479600386857 -1.934207654217082 -3.697424269284282
O -8.994120599784704 7.964469254428443 4.286395337680128
H -8.319534877974137 7.777989033031048 4.956564411762851
H -9.80460400051242 7.585288744620542 4.6582834155028205
O -3.2448863304899342 -5.138060083051893 6.848592904630103
H -3.610334069900704 -6.020939869626241 6.687538289303526
H -2.319639290437265 -5.213472022786657 6.570756804529319
O -8.89052635802348 2.9324977733638975 -1.3274355466746992
H -8.896934457615407 3.1983316196826297 -2.2592395278375883
H -9.52758084527949 2.2034295537915654 -1.2876479132113938
O 11.537398365067894 0.19629398957270006 10.041097310956353
H 11.444521932218757 -0.3011446252405232 10.867472618921157
H 10.623906345961107 0.3714834752024947 9.769430383537912
O -5.710386813624118 3.7055631286114257 8.32204564367496
H -5.549930290304592 4.154536724706004 7.4784558316015115
H -5.427410248055377 2.793227935160979 8.159163163246108
O -5.530765635532053 -5.174630438019279 1.3088348454670855
H -6.4452855147335235 -5.440477086834692 1.4875701434888948
H -5.560840160643781 -4.825404689227656 0.40545295300950823
O -0.6070489799962385 1.061898750626605 -6.149857730473391
H -0.19412648919963543 0.20965312056887508 -6.355137440970637
H -1.4502698177833842 1.034278693254305 -6.626489344460855
O -1.7879631748964053 -10.464465998464028 -6.407372782009498
H -2.478199485905269 -10.831742040953193 -6.97977954339372
H -1.1139179085150193 -10.147623251771623 -7.027240184795977
O 5.8921180644470255 0.5858020786948162 8.121029210757053
H 5.946569008655569 0.5940495042484062 7.1535921680785455
H 6.817110205374318 0.5476425856919547 8.407202823475817
O 3.0397846188476456 -9.108010890179326 7.836452615672352
H 2.625925327381384 -9.980313085877661 7.918773470544663
H 3.018280546995679 -8.927628468209694 6.884632411517095
O 2.0785295470724945 11.826319973246289 -3.9902759420836054
H 1.8973875662042028 11.66990163983698 -3.0512933838640364
H 3.014980459259063 11.597783382975031 -4.089233813282054
O 9.50108646304723 2.754583758533973 0.46397303010297186
H 9.48421965272988 1.8071055219185352 0.26156784551073375
H 9.751396690663874 2.789666476321358 1.3994279660369018
O -5.592934889325098 -0.020062245847539906 8.306626106104686
H -5.383583484706476 0.06463252282634846 9.248945660419189
H -5.353921117077549 -0.9349825047698817 8.095071666800116
O 8.429043985169786 6.715095110332847 -4.904836078129172
H 8.394809832343642 7.508138234231966 -4.349068155956072
H 7.81768898892606 6.09988512196858 -4.472720719590889
O 6.664656131107437 8.549857255916564 1.5926705784831945
H 6.826265693488262 8.197085535107572 2.4805905181424768
H 7.182841712589731 9.368295700202179 1.5680909047832083
O -5.014622356733009 12.5962805121547 5.4684209113216875
H -4.766145324116457 13.520783663046252 5.618489046359301
H -4.522015361103257 12.347867779030725 4.671808454616103
C 6.467240489804268 1.4985569204562408 -11.073550640228442
O 5.424711842916671 1.0034965337989519 -10.755954211908707
O 7.509769136691864 1.9936173071135301 -11.39114706854818