146

C -5.3564454929577465 1.0091607042253532 -0.0734429577464788
C -4.079135492957747 0.16955070422535368 -0.19788295774647868
C -4.333545492957747 -1.2789292957746463 0.3017270422535212
C -3.1403854929577464 -2.1745492957746464 0.7330270422535212
C -2.905235492957746 0.902300704225353 0.41966704225352136
C -2.7423854929577463 1.056130704225354 1.8024770422535212
C -1.8861754929577463 1.3499307042253532 -0.4326129577464788
C -1.5304554929577463 1.5279207042253526 2.3254170422535214
H -3.5237954929577464 0.7301007042253529 2.484817042253521
C -0.6776454929577462 1.8010507042253527 0.08546704225352131
H -1.9759254929577463 1.2426607042253535 -1.5115229577464788
C -0.4680254929577463 1.8513207042253539 1.4698070422535212
H -1.3950654929577464 1.5446707042253527 3.404047042253521
H 0.1461845070422536 1.9972507042253538 -0.6030529577464789
C -1.8679654929577463 -2.0866092957746467 -0.08765295774647863
C -0.6628654929577462 -1.814079295774647 0.5787970422535212
C -1.8438954929577462 -2.213429295774647 -1.4808029577464787
C 0.5129345070422537 -1.5763292957746469 -0.13022295774647863
H -0.6401854929577462 -1.7032692957746463 1.6609470422535213
C -0.6547954929577462 -1.9962392957746466 -2.1933129577464787
H -2.7578654929577464 -2.4351492957746466 -2.026182957746479
C 0.5308845070422537 -1.645769295774647 -1.5261029577464789
H 1.4044045070422537 -1.2610992957746463 0.41551704225352126
H -0.6795654929577464 -2.0467992957746466 -3.2793129577464786
C 1.7843245070422535 -1.2521692957746469 -2.2771629577464787
H 1.4981245070422535 -0.9384492957746469 -3.290282957746479
H 2.241984507042254 -0.38631929577464685 -1.8135029577464787
C 0.9385645070422537 2.0647807042253534 1.9815670422535212
H 1.0508945070422537 1.5807407042253532 2.9609770422535213
H 1.6053245070422537 1.5496207042253536 1.3096170422535214
C 3.9676945070422533 -1.6881692957746468 -3.314052957746479
H 4.795084507042254 -2.398849295774647 -3.4044129577464783
H 3.548404507042253 -1.4816192957746468 -4.303802957746479
H 4.307714507042253 -0.7637192957746466 -2.851282957746479
C 2.344694507042253 -3.565079295774647 -3.101282957746479
H 1.6334345070422536 -4.047909295774646 -2.4251929577464786
H 1.8561845070422536 -3.293109295774647 -4.041792957746479
H 3.1808045070422537 -4.243519295774647 -3.298122957746479
C 3.5156645070422536 -2.648489295774647 -1.1110629577464786
H 3.9311845070422535 -1.748249295774647 -0.6771029577464787
H 2.767184507042254 -3.1044092957746465 -0.45972295774647876
H 4.319224507042254 -3.371819295774647 -1.2863129577464787
C 2.963994507042253 3.381090704225353 2.401027042253521
H 3.3337945070422537 4.369820704225353 2.6912870422535216
H 3.120994507042253 2.671350704225353 3.2183370422535216
H 3.4665445070422534 3.0664207042253535 1.4881370422535212
C 1.2973745070422538 4.282440704225354 0.8488370422535213
H 1.7592145070422538 3.7367207042253527 0.02653704225352116
H 0.23311450704225378 4.4484607042253534 0.6605570422535213
H 1.7921845070422535 5.251370704225354 0.9736770422535213
C 0.7724845070422537 4.194670704225353 3.2772470422535216
H -0.2956954929577462 4.278220704225354 3.057857042253521
H 0.9298945070422537 3.612620704225354 4.190337042253521
H 1.2046345070422537 5.193640704225353 3.3918370422535213
N 2.876084507042253 -2.324759295774647 -2.4576629577464786
N 1.4527845070422536 3.504690704225353 2.1388470422535213
C -3.593905492957746 -3.637819295774647 0.8297870422535213
H -2.8952554929577463 -1.8680692957746468 1.7595270422535212
H -5.022615492957747 -1.2402792957746467 1.1579970422535213
H -4.898275492957747 -1.7933092957746464 -0.48931295774647876
H -3.883675492957746 0.07871070422535364 -1.2758929577464788
H -3.8751654929577466 -4.038529295774646 -0.1505529577464788
H -4.4603554929577465 -3.7321892957746465 1.4932570422535212
H -2.7953554929577464 -4.271929295774647 1.2313670422535212
H -5.648775492957746 1.147700704225353 0.9733970422535213
H -6.189795492957747 0.5254307042253537 -0.5943629577464788
H -5.2178854929577465 2.002970704225354 -0.5139729577464787
C 3.6710445070422537 1.0263707042253536 -0.27764295774647874
O 2.7356545070422538 1.6631507042253526 -0.7327029577464788
O 3.650814507042253 0.3883007042253537 0.7790570422535212
O 4.756604507042254 0.8696707042253538 -0.8334829577464786
O 10.717584373548682 -1.5302312064554626 10.06790860943644
H 10.824341767647487 -1.5770494877504206 11.02987444263522
H 11.378222198613788 -0.8778474848720399 9.79057291356191
O -1.283115808140357 -5.448079581826026 8.883978242917346
H -1.8427919741791725 -4.8307358299669 8.389390901683674
H -0.48739023411699944 -4.932963630964763 9.085071038197269
O -6.719400500238303 7.212577038505133 2.4296787603749013
H -6.677792403362544 7.484962734257781 1.500678138241781
H -7.193545606765095 7.9369240994706205 2.864959931030555
O -4.534417756716275 -9.741338803022375 7.578714763563583
H -4.5667159221654074 -9.66715815945469 6.613095057090839
H -5.285340486479329 -9.207959127249351 7.879685060598804
O 5.9676418607908985 1.5793578551821155 7.999215898292045
H 6.417476888674814 1.6121918889418214 8.856850861907537
H 5.100119968416727 1.9737922991551873 8.174684356879878
O -9.308737208128633 0.6758312084772369 -10.18410070232056
H -9.51775952521823 0.3409187405517464 -9.299165299770433
H -10.17217781988479 0.7437524268026272 -10.618633741767907
O 0.24180829995302666 13.58412131190688 1.474836139484616
H 0.4397869670733545 13.358713521541496 2.396228093165488
H 0.0023922645146416954 12.735697147742107 1.0725696308907835
O 4.939682749249906 0.7237663671156659 3.0748814512662364
H 5.343052196290026 0.8924137897230755 3.9396464441645542
H 4.730734875018804 1.6078393905505335 2.7376610198136992
O -2.6294077777714326 0.4938486358339208 -6.8760541293520365
H -3.339252993003072 1.1498637787260644 -6.944838281661632
H -2.927410636657638 -0.10041665098173883 -6.171068307309104
O 8.270896507763371 -2.5096123493469777 2.2606960521269657
H 8.83632060759684 -2.3560167407321813 3.0324935211833006
H 8.893427108095189 -2.753395211615767 1.559277837354537
O 8.594929713248275 1.8426686625676247 -0.4019875991688564
H 8.556152496948835 2.661366054063623 0.11492464246768552
H 8.602388848643766 2.1468575286917497 -1.321974250879233
O -5.592520351194763 8.721687758915516 3.3525343775566814
H -4.683043125850173 8.395000300687466 3.4239055069859043
H -5.933237215478472 8.665198157839693 4.257897778442188
O -0.9630395991844357 2.0579783090005903 -6.617857661215509
H -0.179627656704544 2.61432286915664 -6.743212420457656
H -1.5156765431941714 2.254723266350518 -7.38912011600827
O 10.207027094866376 -0.14504515757257597 -3.375162091466795
H 9.88672840549489 0.10707419860765932 -2.4960648632114806
H 9.44138736932832 -0.5698012595508167 -3.7903006331733673
O 1.991915523919444 4.652750740117662 -3.1018089697101296
H 2.178620062605297 4.619256996510573 -2.151552719389572
H 2.342484636656223 5.512515455798155 -3.3790595335793263
O -9.267426059972541 -10.814473119181052 3.2367717343087343
H -8.964349948394416 -11.287747729172048 4.026153372699541
H -8.938745583239793 -11.352314043331228 2.5007973945223405
O 3.0684465944129773 -12.0385424097918 0.6186784713577218
H 2.7319660991385244 -12.609485514104996 -0.08826721597410447
H 3.4236461784585765 -11.269023800236821 0.1489590770993976
O -1.8987480154125875 -6.5364100286042195 -4.807856297714515
H -1.5396087634167177 -7.092503756197968 -4.10022212619173
H -1.8470477333921491 -5.637967957713588 -4.448564118015648
O -2.304414598189772 11.474423499725454 6.510310218811114
H -2.418419657204669 11.806490582685743 7.413472250693131
H -1.8016225059982083 12.173331608343569 6.065687331368869
O 4.548615527002088 -1.874115655581958 1.143449885075727
H 5.265817873875343 -1.7714972841532148 1.7869229772752446
H 4.740907308144056 -1.2045694833801313 0.46988196831073537
O 5.614586037683118 -3.0637617986720573 5.269584553357278
H 5.601330082065864 -3.6658323077369923 6.028730612199031
H 5.805722821796441 -3.6417988258016676 4.515726563198669
O -7.181561975567403 1.477073895324366 4.824559819196876
H -7.548630839024142 2.3072559422356314 4.485405613315837
H -7.952811678077833 1.0053099515396213 5.17323534461017
O -5.76353969712045 3.5934794222645694 -5.875490880981451
H -5.316937806535088 4.447336524035059 -5.977677758718674
H -6.623632638747909 3.8234957532817084 -5.493006157720463
O 4.773728285978729 6.24941981059495 3.9179867717440517
H 5.365708455319919 6.650534377830949 3.2640495117887465
H 3.915046760039629 6.661875624478829 3.740481327026753
C 5.739290594929815 1.5975322816575412 -4.982754100248284
O 6.056293963518265 2.2260798020088473 -5.950873481452793
O 5.422287226341365 0.968984761306235 -4.014634719043777