146

C -5.3564454929577465 1.0091607042253532 -0.0734429577464788
C -4.079135492957747 0.16955070422535368 -0.19788295774647868
C -4.333545492957747 -1.2789292957746463 0.3017270422535212
C -3.1403854929577464 -2.1745492957746464 0.7330270422535212
C -2.905235492957746 0.902300704225353 0.41966704225352136
C -2.7423854929577463 1.056130704225354 1.8024770422535212
C -1.8861754929577463 1.3499307042253532 -0.4326129577464788
C -1.5304554929577463 1.5279207042253526 2.3254170422535214
H -3.5237954929577464 0.7301007042253529 2.484817042253521
C -0.6776454929577462 1.8010507042253527 0.08546704225352131
H -1.9759254929577463 1.2426607042253535 -1.5115229577464788
C -0.4680254929577463 1.8513207042253539 1.4698070422535212
H -1.3950654929577464 1.5446707042253527 3.404047042253521
H 0.1461845070422536 1.9972507042253538 -0.6030529577464789
C -1.8679654929577463 -2.0866092957746467 -0.08765295774647863
C -0.6628654929577462 -1.814079295774647 0.5787970422535212
C -1.8438954929577462 -2.213429295774647 -1.4808029577464787
C 0.5129345070422537 -1.5763292957746469 -0.13022295774647863
H -0.6401854929577462 -1.7032692957746463 1.6609470422535213
C -0.6547954929577462 -1.9962392957746466 -2.1933129577464787
H -2.7578654929577464 -2.4351492957746466 -2.026182957746479
C 0.5308845070422537 -1.645769295774647 -1.5261029577464789
H 1.4044045070422537 -1.2610992957746463 0.41551704225352126
H -0.6795654929577464 -2.0467992957746466 -3.2793129577464786
C 1.7843245070422535 -1.2521692957746469 -2.2771629577464787
H 1.4981245070422535 -0.9384492957746469 -3.290282957746479
H 2.241984507042254 -0.38631929577464685 -1.8135029577464787
C 0.9385645070422537 2.0647807042253534 1.9815670422535212
H 1.0508945070422537 1.5807407042253532 2.9609770422535213
H 1.6053245070422537 1.5496207042253536 1.3096170422535214
C 3.9676945070422533 -1.6881692957746468 -3.314052957746479
H 4.795084507042254 -2.398849295774647 -3.4044129577464783
H 3.548404507042253 -1.4816192957746468 -4.303802957746479
H 4.307714507042253 -0.7637192957746466 -2.851282957746479
C 2.344694507042253 -3.565079295774647 -3.101282957746479
H 1.6334345070422536 -4.047909295774646 -2.4251929577464786
H 1.8561845070422536 -3.293109295774647 -4.041792957746479
H 3.1808045070422537 -4.243519295774647 -3.298122957746479
C 3.5156645070422536 -2.648489295774647 -1.1110629577464786
H 3.9311845070422535 -1.748249295774647 -0.6771029577464787
H 2.767184507042254 -3.1044092957746465 -0.45972295774647876
H 4.319224507042254 -3.371819295774647 -1.2863129577464787
C 2.963994507042253 3.381090704225353 2.401027042253521
H 3.3337945070422537 4.369820704225353 2.6912870422535216
H 3.120994507042253 2.671350704225353 3.2183370422535216
H 3.4665445070422534 3.0664207042253535 1.4881370422535212
C 1.2973745070422538 4.282440704225354 0.8488370422535213
H 1.7592145070422538 3.7367207042253527 0.02653704225352116
H 0.23311450704225378 4.4484607042253534 0.6605570422535213
H 1.7921845070422535 5.251370704225354 0.9736770422535213
C 0.7724845070422537 4.194670704225353 3.2772470422535216
H -0.2956954929577462 4.278220704225354 3.057857042253521
H 0.9298945070422537 3.612620704225354 4.190337042253521
H 1.2046345070422537 5.193640704225353 3.3918370422535213
N 2.876084507042253 -2.324759295774647 -2.4576629577464786
N 1.4527845070422536 3.504690704225353 2.1388470422535213
C -3.593905492957746 -3.637819295774647 0.8297870422535213
H -2.8952554929577463 -1.8680692957746468 1.7595270422535212
H -5.022615492957747 -1.2402792957746467 1.1579970422535213
H -4.898275492957747 -1.7933092957746464 -0.48931295774647876
H -3.883675492957746 0.07871070422535364 -1.2758929577464788
H -3.8751654929577466 -4.038529295774646 -0.1505529577464788
H -4.4603554929577465 -3.7321892957746465 1.4932570422535212
H -2.7953554929577464 -4.271929295774647 1.2313670422535212
H -5.648775492957746 1.147700704225353 0.9733970422535213
H -6.189795492957747 0.5254307042253537 -0.5943629577464788
H -5.2178854929577465 2.002970704225354 -0.5139729577464787
C 3.6710445070422537 1.0263707042253536 -0.27764295774647874
O 2.7356545070422538 1.6631507042253526 -0.7327029577464788
O 3.650814507042253 0.3883007042253537 0.7790570422535212
O 4.756604507042254 0.8696707042253538 -0.8334829577464786
O -0.2119984837412136 0.4856171299198794 9.933343580024914
H -0.1704139358064039 0.47838421839866674 10.901427133889964
H 0.7016403767814753 0.3161615985633611 9.658551295316117
O 4.539572644429537 1.8883208969532155 -11.60833943783505
H 4.434876719354649 2.7747054680682757 -11.985603950162787
H 5.193802817958577 2.009550254537163 -10.903890527548473
O -2.8051454159093416 9.79603074992027 -1.488335524731112
H -3.739861943053987 9.657518039373752 -1.2736576269406976
H -2.414319221195338 10.091677955854266 -0.6523872252240239
O 7.7547987085717835 9.289637927039 -2.9130055643822557
H 8.389925972695254 9.158022186388749 -3.6329069549074604
H 8.255489100160455 9.0633177991415 -2.114851271166187
O -7.638308158443747 -6.813103330607179 9.296359454258312
H -8.097617260457389 -6.261610886590294 8.645315223887053
H -8.34469208855643 -7.3453323617326305 9.692233103300305
O 0.9035512681523397 -5.0395088040566804 13.436526364154448
H 0.479203814899249 -5.096803126675749 14.30578694442554
H 0.5811407210663719 -5.823186885690322 12.966566740575205
O 13.066328005549572 5.925412143810395 -0.6895520161290148
H 12.801708763110017 5.369189387477167 0.058485589053895164
H 14.026402476533038 6.010622437734288 -0.5897614340321954
O -3.371760075214474 -1.544015368786618 11.69614919920525
H -3.38507333558117 -1.9860756301458915 12.558339920174443
H -4.251687934602475 -1.1446093167253517 11.624290225168023
O 3.1326934241398234 -9.068506939724726 2.2420759068146934
H 2.178785167443494 -9.11341271761211 2.0777291215741522
H 3.5283688279683063 -9.276601438408992 1.3823668870164187
O 2.253701064571564 -5.425429054614829 2.436995604794259
H 2.885845755792607 -6.116573581960028 2.685349563051092
H 2.0945260327776407 -4.945770277293286 3.2637680710096046
O -3.904561400783659 3.105065847968403 3.4594131669844286
H -3.782634601096375 3.811398956035545 4.111482759026742
H -4.568550500729905 2.5260597132071534 3.862938030358932
O -11.63952530377794 -1.3127303103774262 2.4849661750627545
H -11.199515743615626 -1.1849589162334033 1.6311316391576636
H -12.572240831789005 -1.1287533447009281 2.297466403842873
O -0.09581361987689663 8.368875295431726 5.912872517304457
H -0.12800240298120125 8.297136334354922 6.878680345294004
H 0.4844584797087159 9.128442237384178 5.753799278085831
O 0.8293194040711858 5.400671313829715 -1.1065830398006913
H 0.8867937687967988 5.433511927675978 -0.13984339109397306
H 1.5525935843967678 5.973033148625647 -1.4036324202804205
O -2.6055175861835522 7.651764109756896 -5.249847102557474
H -1.8727390804802633 8.23386735447627 -4.998532894908103
H -2.6816446623584618 7.771795734255404 -6.208366284260849
O 5.438681670098806 -3.8649079708459566 -11.269376305173141
H 4.9693158868400875 -4.501135038365748 -10.70912793439363
H 5.438834816526387 -3.0486744127101515 -10.747145801066829
O 4.621890907882817 6.518596326788122 -1.607641711015039
H 4.7361158144536875 6.20689775322361 -2.518006487825261
H 5.391396583816837 6.161184019096153 -1.139582525317731
O 1.8305389961681156 -0.10980623633386105 5.927205499559002
H 1.803702649802787 -0.07674592361339416 6.895272740579267
H 1.2148456142178725 0.5860348817617248 5.652089629260401
O -5.14413630766365 0.44483035032244533 -11.247109599147983
H -5.715463321807186 0.6941582404485347 -10.50522793539351
H -4.669673703670642 -0.33622986292945933 -10.924941746954342
O -0.590378559974133 -0.7767532042375485 -4.458550836754576
H 0.16645720064158964 -1.1156036191838394 -4.959896410828935
H -1.3575499076642874 -1.0276973213370368 -4.994682460216977
O -2.8200732737284637 -10.852654570330753 -0.21997947157382214
H -3.754698320239301 -10.65455878965984 -0.05811087976244789
H -2.815465495974839 -11.796449083308955 -0.4395076701188092
O 9.339804372520351 4.681909300413646 3.902672164339225
H 9.321700937789537 4.397213785189243 2.976611644631112
H 8.666850387549205 5.377714543231253 3.9468303173688493
O 0.17606806585430235 -9.298794419675378 -10.779555172397753
H 0.2927689069308075 -8.927599481722929 -11.667002403860288
H 0.15400350264857288 -8.521279082525723 -10.201675427253834
O 5.754175452358717 10.394260379154076 -0.7210593673363359
H 6.411906351651872 9.713874418745975 -0.5126550346209049
H 6.2835179999258965 11.14437315245173 -1.0310420103516966
C -6.283679683178349 -1.7808623177800822 6.980221999800532
O -5.147535174184069 -1.720482481052196 7.352173861334874
O -7.419824192172628 -1.8412421545079685 6.608270138266192