146

C -5.3564454929577465 1.0091607042253532 -0.0734429577464788
C -4.079135492957747 0.16955070422535368 -0.19788295774647868
C -4.333545492957747 -1.2789292957746463 0.3017270422535212
C -3.1403854929577464 -2.1745492957746464 0.7330270422535212
C -2.905235492957746 0.902300704225353 0.41966704225352136
C -2.7423854929577463 1.056130704225354 1.8024770422535212
C -1.8861754929577463 1.3499307042253532 -0.4326129577464788
C -1.5304554929577463 1.5279207042253526 2.3254170422535214
H -3.5237954929577464 0.7301007042253529 2.484817042253521
C -0.6776454929577462 1.8010507042253527 0.08546704225352131
H -1.9759254929577463 1.2426607042253535 -1.5115229577464788
C -0.4680254929577463 1.8513207042253539 1.4698070422535212
H -1.3950654929577464 1.5446707042253527 3.404047042253521
H 0.1461845070422536 1.9972507042253538 -0.6030529577464789
C -1.8679654929577463 -2.0866092957746467 -0.08765295774647863
C -0.6628654929577462 -1.814079295774647 0.5787970422535212
C -1.8438954929577462 -2.213429295774647 -1.4808029577464787
C 0.5129345070422537 -1.5763292957746469 -0.13022295774647863
H -0.6401854929577462 -1.7032692957746463 1.6609470422535213
C -0.6547954929577462 -1.9962392957746466 -2.1933129577464787
H -2.7578654929577464 -2.4351492957746466 -2.026182957746479
C 0.5308845070422537 -1.645769295774647 -1.5261029577464789
H 1.4044045070422537 -1.2610992957746463 0.41551704225352126
H -0.6795654929577464 -2.0467992957746466 -3.2793129577464786
C 1.7843245070422535 -1.2521692957746469 -2.2771629577464787
H 1.4981245070422535 -0.9384492957746469 -3.290282957746479
H 2.241984507042254 -0.38631929577464685 -1.8135029577464787
C 0.9385645070422537 2.0647807042253534 1.9815670422535212
H 1.0508945070422537 1.5807407042253532 2.9609770422535213
H 1.6053245070422537 1.5496207042253536 1.3096170422535214
C 3.9676945070422533 -1.6881692957746468 -3.314052957746479
H 4.795084507042254 -2.398849295774647 -3.4044129577464783
H 3.548404507042253 -1.4816192957746468 -4.303802957746479
H 4.307714507042253 -0.7637192957746466 -2.851282957746479
C 2.344694507042253 -3.565079295774647 -3.101282957746479
H 1.6334345070422536 -4.047909295774646 -2.4251929577464786
H 1.8561845070422536 -3.293109295774647 -4.041792957746479
H 3.1808045070422537 -4.243519295774647 -3.298122957746479
C 3.5156645070422536 -2.648489295774647 -1.1110629577464786
H 3.9311845070422535 -1.748249295774647 -0.6771029577464787
H 2.767184507042254 -3.1044092957746465 -0.45972295774647876
H 4.319224507042254 -3.371819295774647 -1.2863129577464787
C 2.963994507042253 3.381090704225353 2.401027042253521
H 3.3337945070422537 4.369820704225353 2.6912870422535216
H 3.120994507042253 2.671350704225353 3.2183370422535216
H 3.4665445070422534 3.0664207042253535 1.4881370422535212
C 1.2973745070422538 4.282440704225354 0.8488370422535213
H 1.7592145070422538 3.7367207042253527 0.02653704225352116
H 0.23311450704225378 4.4484607042253534 0.6605570422535213
H 1.7921845070422535 5.251370704225354 0.9736770422535213
C 0.7724845070422537 4.194670704225353 3.2772470422535216
H -0.2956954929577462 4.278220704225354 3.057857042253521
H 0.9298945070422537 3.612620704225354 4.190337042253521
H 1.2046345070422537 5.193640704225353 3.3918370422535213
N 2.876084507042253 -2.324759295774647 -2.4576629577464786
N 1.4527845070422536 3.504690704225353 2.1388470422535213
C -3.593905492957746 -3.637819295774647 0.8297870422535213
H -2.8952554929577463 -1.8680692957746468 1.7595270422535212
H -5.022615492957747 -1.2402792957746467 1.1579970422535213
H -4.898275492957747 -1.7933092957746464 -0.48931295774647876
H -3.883675492957746 0.07871070422535364 -1.2758929577464788
H -3.8751654929577466 -4.038529295774646 -0.1505529577464788
H -4.4603554929577465 -3.7321892957746465 1.4932570422535212
H -2.7953554929577464 -4.271929295774647 1.2313670422535212
H -5.648775492957746 1.147700704225353 0.9733970422535213
H -6.189795492957747 0.5254307042253537 -0.5943629577464788
H -5.2178854929577465 2.002970704225354 -0.5139729577464787
C 3.6710445070422537 1.0263707042253536 -0.27764295774647874
O 2.7356545070422538 1.6631507042253526 -0.7327029577464788
O 3.650814507042253 0.3883007042253537 0.7790570422535212
O 4.756604507042254 0.8696707042253538 -0.8334829577464786
O 6.618229819009806 -7.881113371276282 -0.39122715657571794
H 7.536506498123735 -8.127751683537468 -0.20439878501388287
H 6.368336423801008 -8.453273410837136 -1.132272448349939
O -7.718764126667503 -0.0454866017337594 -8.910288715969225
H -7.580917500905715 -0.6448346871377149 -8.161457935893575
H -8.529462744034518 0.4331420869008584 -8.680845314418612
O -7.508913465415464 5.468180882270012 9.02094081990134
H -7.8081306768156455 4.80416705081365 8.381783523974477
H -7.101811971157831 6.154927907096245 8.471751561479874
O 6.248939343991598 10.070284248795728 9.538169750567727
H 7.214452446292153 10.018950820666795 9.474008349846645
H 6.0400407705803225 9.561925704843096 10.336226716652913
O 6.867794887946743 2.7448212957179963 8.387947972107233
H 7.6942603227859925 2.3028644768857944 8.634111357288075
H 6.193646638155732 2.0570883753400726 8.495230365034347
O 0.2995186024321134 -1.1974970531195979 6.789339281498185
H 0.270023652677201 -0.8185094830419457 7.680667406582091
H -0.07664614157308045 -0.5034991845572576 6.2273526374411965
O -10.925642407308946 -2.062794683116251 -3.70466052036097
H -10.718994235900649 -2.9451968239395985 -4.0476333356451875
H -10.64359109623923 -1.4644810149995915 -4.412777570550162
O -5.53320934275121 3.553163798421399 -5.343330922614038
H -5.5994354019555255 2.686904878168888 -5.77248934215771
H -5.262945041869507 3.3449960287529255 -4.436366021617215
O -5.044564785665354 -10.200531283063183 -6.965087836669132
H -4.974456606760743 -10.334659604992167 -7.922199007540727
H -4.247080764794029 -10.621695836758757 -6.6106846771666925
O -5.067371478589857 9.018332914540316 -6.936760440371139
H -5.36793312837313 9.355427063619823 -7.7940804426082995
H -4.102147269881746 8.996193895171535 -7.019307608979092
O -1.9324974165325453 -10.322904795872372 -4.963615796964175
H -2.16622418839191 -10.19326542532201 -4.032201395841073
H -2.6415000104329227 -10.887474087160097 -5.306455090916042
O 0.9278025904657274 -5.369759549026626 0.6804123381954658
H 1.2650947510579382 -5.371008721180337 -0.2279927448330087
H 1.0158091564173894 -4.446606634717038 0.9614914826567913
O -3.3423001492540125 2.49668504569554 7.305836208867392
H -2.7451127998242297 1.8589864061659505 6.886700107197371
H -3.644213729781297 2.0429899157249762 8.107067051530223
O -6.785766004263401 -0.2969815471637004 -5.929484869533916
H -7.266918343643215 -0.6858925016874322 -6.6752784419524325
H -7.443531209021418 -0.26298100332899166 -5.218745224707074
O 5.0102000989836535 3.2960506535664043 -8.02333252978451
H 4.868609937214376 3.4537046105122586 -7.077782524311789
H 4.4495532123977135 3.956598138218071 -8.457284178452708
O -0.1710826759551335 0.7790314339813382 5.2456625638145935
H -0.286868125239369 0.9375244677390725 4.296746843171122
H -0.2487700508892592 1.660154671171319 5.6413246127398
O -2.1432965608607555 -5.400129229135818 3.8646160819987654
H -2.3498856058081694 -5.045864119052117 4.742559448728704
H -3.0055862309436687 -5.456647997777566 3.426182394926797
O -2.4630129977661217 -2.142705159530909 -9.120101123177086
H -1.5989876164527772 -2.5748092150680875 -9.19568936653975
H -2.4859383886028414 -1.823672809017844 -8.205412799166611
O -9.561008947887352 4.170325698973908 10.837537269097554
H -10.290735624151377 4.764047463381322 11.069831912422806
H -9.3002016434187 3.777639133552097 11.684141518775654
O -6.8247869308345015 -7.816033730419235 -3.5269209853607717
H -6.781420553098378 -8.757979016866633 -3.7501379012107536
H -7.067076382819795 -7.388498481003845 -4.362068503026954
O -6.802244753952991 11.145965475837384 -7.267433588664368
H -6.752175911897776 11.739350248008865 -8.03186473671516
H -6.951801955009812 11.741781873194675 -6.518035557874168
O 1.7027479016387443 7.545367577607523 9.691458332866397
H 2.2822293343446547 7.576884969045711 10.467457869004171
H 2.104005242011131 8.175174907783166 9.073965646307027
O -6.43366638383953 7.363379818040327 2.709102509815178
H -6.730487006399068 7.140153731799729 3.604108090437487
H -5.50490367706996 7.61370600500315 2.8261434382749044
O -2.5308595518709422 11.044695988640536 -5.152792450574654
H -2.9910001455378885 11.286007486306193 -5.970720779986338
H -1.820197583306837 11.6996166959428 -5.082079100468107
C -5.447587268797189 1.2801897145429257 9.286157260221724
O -5.119894913982087 1.0903314885275752 8.150644234356308
O -5.775279623612293 1.4700479405582758 10.421670286087144