146

C -5.3564454929577465 1.0091607042253532 -0.0734429577464788
C -4.079135492957747 0.16955070422535368 -0.19788295774647868
C -4.333545492957747 -1.2789292957746463 0.3017270422535212
C -3.1403854929577464 -2.1745492957746464 0.7330270422535212
C -2.905235492957746 0.902300704225353 0.41966704225352136
C -2.7423854929577463 1.056130704225354 1.8024770422535212
C -1.8861754929577463 1.3499307042253532 -0.4326129577464788
C -1.5304554929577463 1.5279207042253526 2.3254170422535214
H -3.5237954929577464 0.7301007042253529 2.484817042253521
C -0.6776454929577462 1.8010507042253527 0.08546704225352131
H -1.9759254929577463 1.2426607042253535 -1.5115229577464788
C -0.4680254929577463 1.8513207042253539 1.4698070422535212
H -1.3950654929577464 1.5446707042253527 3.404047042253521
H 0.1461845070422536 1.9972507042253538 -0.6030529577464789
C -1.8679654929577463 -2.0866092957746467 -0.08765295774647863
C -0.6628654929577462 -1.814079295774647 0.5787970422535212
C -1.8438954929577462 -2.213429295774647 -1.4808029577464787
C 0.5129345070422537 -1.5763292957746469 -0.13022295774647863
H -0.6401854929577462 -1.7032692957746463 1.6609470422535213
C -0.6547954929577462 -1.9962392957746466 -2.1933129577464787
H -2.7578654929577464 -2.4351492957746466 -2.026182957746479
C 0.5308845070422537 -1.645769295774647 -1.5261029577464789
H 1.4044045070422537 -1.2610992957746463 0.41551704225352126
H -0.6795654929577464 -2.0467992957746466 -3.2793129577464786
C 1.7843245070422535 -1.2521692957746469 -2.2771629577464787
H 1.4981245070422535 -0.9384492957746469 -3.290282957746479
H 2.241984507042254 -0.38631929577464685 -1.8135029577464787
C 0.9385645070422537 2.0647807042253534 1.9815670422535212
H 1.0508945070422537 1.5807407042253532 2.9609770422535213
H 1.6053245070422537 1.5496207042253536 1.3096170422535214
C 3.9676945070422533 -1.6881692957746468 -3.314052957746479
H 4.795084507042254 -2.398849295774647 -3.4044129577464783
H 3.548404507042253 -1.4816192957746468 -4.303802957746479
H 4.307714507042253 -0.7637192957746466 -2.851282957746479
C 2.344694507042253 -3.565079295774647 -3.101282957746479
H 1.6334345070422536 -4.047909295774646 -2.4251929577464786
H 1.8561845070422536 -3.293109295774647 -4.041792957746479
H 3.1808045070422537 -4.243519295774647 -3.298122957746479
C 3.5156645070422536 -2.648489295774647 -1.1110629577464786
H 3.9311845070422535 -1.748249295774647 -0.6771029577464787
H 2.767184507042254 -3.1044092957746465 -0.45972295774647876
H 4.319224507042254 -3.371819295774647 -1.2863129577464787
C 2.963994507042253 3.381090704225353 2.401027042253521
H 3.3337945070422537 4.369820704225353 2.6912870422535216
H 3.120994507042253 2.671350704225353 3.2183370422535216
H 3.4665445070422534 3.0664207042253535 1.4881370422535212
C 1.2973745070422538 4.282440704225354 0.8488370422535213
H 1.7592145070422538 3.7367207042253527 0.02653704225352116
H 0.23311450704225378 4.4484607042253534 0.6605570422535213
H 1.7921845070422535 5.251370704225354 0.9736770422535213
C 0.7724845070422537 4.194670704225353 3.2772470422535216
H -0.2956954929577462 4.278220704225354 3.057857042253521
H 0.9298945070422537 3.612620704225354 4.190337042253521
H 1.2046345070422537 5.193640704225353 3.3918370422535213
N 2.876084507042253 -2.324759295774647 -2.4576629577464786
N 1.4527845070422536 3.504690704225353 2.1388470422535213
C -3.593905492957746 -3.637819295774647 0.8297870422535213
H -2.8952554929577463 -1.8680692957746468 1.7595270422535212
H -5.022615492957747 -1.2402792957746467 1.1579970422535213
H -4.898275492957747 -1.7933092957746464 -0.48931295774647876
H -3.883675492957746 0.07871070422535364 -1.2758929577464788
H -3.8751654929577466 -4.038529295774646 -0.1505529577464788
H -4.4603554929577465 -3.7321892957746465 1.4932570422535212
H -2.7953554929577464 -4.271929295774647 1.2313670422535212
H -5.648775492957746 1.147700704225353 0.9733970422535213
H -6.189795492957747 0.5254307042253537 -0.5943629577464788
H -5.2178854929577465 2.002970704225354 -0.5139729577464787
C 3.6710445070422537 1.0263707042253536 -0.27764295774647874
O 2.7356545070422538 1.6631507042253526 -0.7327029577464788
O 3.650814507042253 0.3883007042253537 0.7790570422535212
O 4.756604507042254 0.8696707042253538 -0.8334829577464786
O -1.3441866671191791 2.3579904863496317 11.31205816545808
H -1.675646261847629 2.333605618752712 12.222281913881913
H -1.5586508403165023 3.2529652635597457 11.008764230681113
O -0.7209844779065318 7.819162698730391 10.03410887538624
H -1.1557030330197844 6.963650650295483 9.899623672769176
H 0.01553167433548408 7.61630957211119 10.63022674192559
O -3.4277132050733017 -9.636189864602505 7.417870453684598
H -3.090873489654747 -9.268496534366337 8.248718200216167
H -4.031632095550272 -10.339165690576944 7.700834949903861
O 12.044501105210767 -2.8244663318834022 -4.546120192906956
H 12.108447015357875 -3.663265494653298 -4.0651895929115085
H 12.474617383201071 -2.1846885352954324 -3.9590543510282035
O -3.0461262930183075 12.793648201245873 -4.797273540497289
H -2.5459870523299584 12.41564057195024 -5.536149936803178
H -2.420269312086419 13.403656618119458 -4.378758648214827
O -8.27997488486599 -4.909896875209556 4.2305405323383765
H -8.522189624610794 -5.808101477365755 4.501700760645891
H -7.563866907827272 -4.667512157800996 4.836676621255944
O -2.6355974722303523 -5.362977643745878 -6.440668626620408
H -3.146109968165703 -6.071168868246965 -6.861155889130833
H -1.9274395511389857 -5.176435874277071 -7.07523656730052
O 1.1308401126747318 -3.703896164600937 12.099487792520758
H 1.4793508653969623 -3.0189794051818044 12.68973913288669
H 1.8288762121571107 -4.375779097115085 12.08272852297781
O 0.8596541994947193 -13.037193982981632 -8.0514984067974
H 0.8943264735057941 -13.2611901021439 -8.993618849689469
H -0.08365947783109728 -12.898804662025615 -7.878380971755818
O -1.2627736115298736 11.248183256523848 3.0812419076912576
H -1.109186216138025 10.921095003302781 3.9803478766857587
H -2.205507640544523 11.08291968039384 2.9299063690939837
O -6.198286420072787 -3.2345072861276924 8.627227494101795
H -7.0023213624706955 -3.673744732027076 8.311687267786702
H -5.498003505896314 -3.8847456104062523 8.466741027220886
O 1.7281878340417818 7.073166735310563 -8.703793293925935
H 1.6441455896917292 7.181546242169772 -9.66304203151049
H 1.9994503149688836 7.949649181856538 -8.392092906312996
O 6.0371276006711 -8.561806491946244 2.34603614113428
H 5.703291243590637 -8.186146901845646 1.517543222663218
H 5.387822381389782 -8.281580941575594 3.008484869288772
O 11.431237201464183 3.176013532556125 5.52637023268166
H 12.127237795341777 3.8262153330769806 5.348077919831451
H 11.903598849854957 2.4320476634484463 5.929298517904237
O 7.178409961015444 -3.1308517895775703 -4.484628226979093
H 7.224316730276728 -3.134840312461534 -5.4525352561514175
H 7.280689445894568 -2.1964409327670866 -4.249304615865466
O -3.8253497869855484 1.7701364144889151 8.710631604527489
H -3.3218781288186414 1.86366997696011 9.533270722861957
H -3.1585060139197876 1.8728729095088958 8.015127083180264
O -7.714796550767446 3.1907549064918035 -2.9325105568537513
H -7.09322848313302 2.9237451542381026 -2.2387337293374205
H -8.57651480420594 2.897466832643492 -2.60026711940275
O -9.195609985810497 12.33028506232801 4.386275978090933
H -8.919081930116306 13.079802882509847 4.934657805419168
H -8.617853704407446 11.606297036071638 4.670882656573222
O -5.864579860937812 -0.8511582308789731 7.928973633173324
H -5.503119612675421 -0.12444915788555999 7.399627084062867
H -5.110779924935822 -1.1529934562097286 8.457786546719246
O 9.449131133784444 -2.9508585363571047 -4.7025127621594764
H 9.817761235976059 -3.00655372225503 -5.59692723595001
H 9.450569084664194 -3.8684889789603405 -4.391202230045548
O 5.051483127484955 13.270570719279968 -3.590065985647076
H 5.038303491540752 13.625400837886911 -4.491669690733607
H 5.989048980931152 13.092159106460235 -3.422430932144633
O -2.7568743485178615 -7.233629888682234 3.471066123362646
H -3.369679262335355 -6.69577217097219 3.994656201573527
H -1.9608656187477724 -6.684920173100973 3.4058764427641055
O -1.770776889963191 -0.5276877827378548 5.945887219241933
H -1.4414013342280236 -0.39680145038713577 6.847745228125775
H -1.2142978388542693 -1.238836360572622 5.59437518499488
O -5.900661913640566 3.0017207495140212 1.1391527766760587
H -6.244748018906101 3.187056003381888 2.025844917577809
H -4.939916590254002 3.0770109075126086 1.2404531221808628
C -7.862154743534109 -8.140592836803526 0.8129443401781122
O -6.860849104835184 -8.358163050319174 0.19418067172262354
O -8.863460382233033 -7.923022623287878 1.4317080086336018