146

C -5.3564454929577465 1.0091607042253532 -0.0734429577464788
C -4.079135492957747 0.16955070422535368 -0.19788295774647868
C -4.333545492957747 -1.2789292957746463 0.3017270422535212
C -3.1403854929577464 -2.1745492957746464 0.7330270422535212
C -2.905235492957746 0.902300704225353 0.41966704225352136
C -2.7423854929577463 1.056130704225354 1.8024770422535212
C -1.8861754929577463 1.3499307042253532 -0.4326129577464788
C -1.5304554929577463 1.5279207042253526 2.3254170422535214
H -3.5237954929577464 0.7301007042253529 2.484817042253521
C -0.6776454929577462 1.8010507042253527 0.08546704225352131
H -1.9759254929577463 1.2426607042253535 -1.5115229577464788
C -0.4680254929577463 1.8513207042253539 1.4698070422535212
H -1.3950654929577464 1.5446707042253527 3.404047042253521
H 0.1461845070422536 1.9972507042253538 -0.6030529577464789
C -1.8679654929577463 -2.0866092957746467 -0.08765295774647863
C -0.6628654929577462 -1.814079295774647 0.5787970422535212
C -1.8438954929577462 -2.213429295774647 -1.4808029577464787
C 0.5129345070422537 -1.5763292957746469 -0.13022295774647863
H -0.6401854929577462 -1.7032692957746463 1.6609470422535213
C -0.6547954929577462 -1.9962392957746466 -2.1933129577464787
H -2.7578654929577464 -2.4351492957746466 -2.026182957746479
C 0.5308845070422537 -1.645769295774647 -1.5261029577464789
H 1.4044045070422537 -1.2610992957746463 0.41551704225352126
H -0.6795654929577464 -2.0467992957746466 -3.2793129577464786
C 1.7843245070422535 -1.2521692957746469 -2.2771629577464787
H 1.4981245070422535 -0.9384492957746469 -3.290282957746479
H 2.241984507042254 -0.38631929577464685 -1.8135029577464787
C 0.9385645070422537 2.0647807042253534 1.9815670422535212
H 1.0508945070422537 1.5807407042253532 2.9609770422535213
H 1.6053245070422537 1.5496207042253536 1.3096170422535214
C 3.9676945070422533 -1.6881692957746468 -3.314052957746479
H 4.795084507042254 -2.398849295774647 -3.4044129577464783
H 3.548404507042253 -1.4816192957746468 -4.303802957746479
H 4.307714507042253 -0.7637192957746466 -2.851282957746479
C 2.344694507042253 -3.565079295774647 -3.101282957746479
H 1.6334345070422536 -4.047909295774646 -2.4251929577464786
H 1.8561845070422536 -3.293109295774647 -4.041792957746479
H 3.1808045070422537 -4.243519295774647 -3.298122957746479
C 3.5156645070422536 -2.648489295774647 -1.1110629577464786
H 3.9311845070422535 -1.748249295774647 -0.6771029577464787
H 2.767184507042254 -3.1044092957746465 -0.45972295774647876
H 4.319224507042254 -3.371819295774647 -1.2863129577464787
C 2.963994507042253 3.381090704225353 2.401027042253521
H 3.3337945070422537 4.369820704225353 2.6912870422535216
H 3.120994507042253 2.671350704225353 3.2183370422535216
H 3.4665445070422534 3.0664207042253535 1.4881370422535212
C 1.2973745070422538 4.282440704225354 0.8488370422535213
H 1.7592145070422538 3.7367207042253527 0.02653704225352116
H 0.23311450704225378 4.4484607042253534 0.6605570422535213
H 1.7921845070422535 5.251370704225354 0.9736770422535213
C 0.7724845070422537 4.194670704225353 3.2772470422535216
H -0.2956954929577462 4.278220704225354 3.057857042253521
H 0.9298945070422537 3.612620704225354 4.190337042253521
H 1.2046345070422537 5.193640704225353 3.3918370422535213
N 2.876084507042253 -2.324759295774647 -2.4576629577464786
N 1.4527845070422536 3.504690704225353 2.1388470422535213
C -3.593905492957746 -3.637819295774647 0.8297870422535213
H -2.8952554929577463 -1.8680692957746468 1.7595270422535212
H -5.022615492957747 -1.2402792957746467 1.1579970422535213
H -4.898275492957747 -1.7933092957746464 -0.48931295774647876
H -3.883675492957746 0.07871070422535364 -1.2758929577464788
H -3.8751654929577466 -4.038529295774646 -0.1505529577464788
H -4.4603554929577465 -3.7321892957746465 1.4932570422535212
H -2.7953554929577464 -4.271929295774647 1.2313670422535212
H -5.648775492957746 1.147700704225353 0.9733970422535213
H -6.189795492957747 0.5254307042253537 -0.5943629577464788
H -5.2178854929577465 2.002970704225354 -0.5139729577464787
C 3.6710445070422537 1.0263707042253536 -0.27764295774647874
O 2.7356545070422538 1.6631507042253526 -0.7327029577464788
O 3.650814507042253 0.3883007042253537 0.7790570422535212
O 4.756604507042254 0.8696707042253538 -0.8334829577464786
O -10.744424986269124 -5.158102521058309 -4.581739630858892
H -11.614214450660636 -5.3441454928090035 -4.19726380951807
H -10.165762578139686 -5.827263757850881 -4.186347419387709
O 0.13518258006214667 7.102842277064391 7.105188849409392
H -0.028128563376925708 6.278914947135981 7.588345741449298
H 0.4330206237988916 6.806951906305212 6.231859969493547
O 7.066536227575177 -1.8254719035794333 -10.885362399410777
H 7.066618706229959 -2.1525926537701423 -11.79748046462599
H 7.0934589700542245 -2.6312004722532616 -10.34773931223889
O -8.083008976010792 2.7811243102625145 8.820098806826765
H -8.139770599415511 2.5224533719283286 9.752211901182688
H -8.147930605074631 3.7477201791316177 8.841064318146055
O 7.129317733331322 5.9489871078212175 8.954230370706972
H 7.446042011529466 6.818949841541388 9.24026870806404
H 7.608278517439418 5.32709939036001 9.52239775665714
O 7.508966901740781 -8.100050824841002 -0.4469004827932448
H 6.845232618978281 -7.808528015608375 0.1960914382157739
H 8.343683619481459 -8.059356163798872 0.04356245157274241
O -11.838860780298143 3.153406196510196 -3.6920775555893854
H -12.586970347699188 3.0236831324703095 -3.090021612408749
H -12.137233053824511 3.856854978758017 -4.28797665899932
O -3.4481311371441787 -0.22598816743003636 -5.467012229125002
H -3.5176084645570036 -0.1894310592721553 -4.501194525974607
H -2.7178471629269225 -0.8427390764117303 -5.625963723524092
O -10.99332759448531 6.459614468065901 0.01819676735452358
H -11.558127718119763 7.100247976429044 0.47597060365891064
H -10.09722503508187 6.806730973750794 0.14258438254073624
O 5.022906900247326 -1.2592987040473838 3.682040795667233
H 5.562226423716752 -1.7690315249185553 4.305157365685581
H 4.136111277122296 -1.6385766623262628 3.7753344046128294
O -6.535248159117924 -5.866128891249773 0.3051065562720925
H -6.059287804859382 -5.164860276732336 0.7748420439317742
H -6.068879239392101 -5.939237131436801 -0.5411305028493594
O -10.54029933869954 -1.6818297914806921 -4.816538513580253
H -10.43974808113879 -1.5518486993958112 -5.771505380651239
H -11.318091285073152 -2.254517826681859 -4.738885137647364
O 13.423933646269338 3.5927320202850703 -8.813758032167682
H 13.641025117319526 3.6538627636486836 -9.756149501947137
H 13.37494170869694 2.639585830724394 -8.646204829635277
O 7.670104174674192 1.936686998415794 1.0790532004598556
H 7.262489782147803 1.947956113334183 1.9580815680079686
H 7.608363783449574 1.0095097395095793 0.8042943990383395
O 7.062067098477995 -4.83378406566157 -9.239712920148085
H 7.826747094120853 -5.233935791497326 -9.680292603604217
H 7.454535055358432 -4.263677176415303 -8.561547024547282
O 9.928014013940324 -4.7862504752137305 -2.1010002336790885
H 9.918012261551654 -4.740774399438333 -1.1331163313533872
H 9.64561115552787 -3.9022307919405588 -2.379782889965447
O 10.491631785008178 2.864809401262059 -0.5803090240603392
H 10.318228970637504 3.5789746586784283 -1.2118680521548957
H 10.062426170876602 2.0920179645210606 -0.9772194426659973
O 0.4816877816463052 6.055083027524523 -4.733940302857373
H 0.0901595854041406 5.702522892175295 -5.547189575473027
H 0.4320991731388153 5.315047846594651 -4.1103612419578095
O -1.5232260522579453 0.1993848404589844 14.778601943928408
H -1.760964322195751 -0.3077661538079699 15.56932676390121
H -1.5644176553927078 1.1222132809561876 15.07126705209931
O 5.319215038917805 0.08786205508409939 6.092534452606374
H 5.151206611297731 -0.029362780066196192 7.0396346918485655
H 5.72325799679229 -0.7499917693610259 5.82103454219255
O 9.160018512794979 -2.9289506146421975 -4.010729594384056
H 9.935775510133684 -2.369568222422994 -4.166485099118741
H 9.220232964505193 -3.6092986929276107 -4.698088784675845
O 7.858490765619453 5.554947494061096 0.8709533492522865
H 7.94357333301026 4.775043341671022 0.3022022378591662
H 7.594415200955171 5.190990423134856 1.7293013503392771
O -4.8275387086983566 -3.392616471217771 4.860190961816242
H -5.600309308270596 -3.1080566713153726 4.349486861953836
H -5.1826678893830715 -4.05355602322132 5.473382708273702
O 1.1549400139588983 13.980080816993143 -3.4821464609445165
H 1.1301729538718712 14.537184842044168 -4.274604065429826
H 2.0432347395985904 13.593156725386095 -3.4957174607147703
C -6.041194051235518 9.501614296860456 7.901034254008856
O -5.647174511938321 8.9871054326296 6.894631010482735
O -6.435213590532715 10.016123161091311 8.90743749753498