146

C -5.3564454929577465 1.0091607042253532 -0.0734429577464788
C -4.079135492957747 0.16955070422535368 -0.19788295774647868
C -4.333545492957747 -1.2789292957746463 0.3017270422535212
C -3.1403854929577464 -2.1745492957746464 0.7330270422535212
C -2.905235492957746 0.902300704225353 0.41966704225352136
C -2.7423854929577463 1.056130704225354 1.8024770422535212
C -1.8861754929577463 1.3499307042253532 -0.4326129577464788
C -1.5304554929577463 1.5279207042253526 2.3254170422535214
H -3.5237954929577464 0.7301007042253529 2.484817042253521
C -0.6776454929577462 1.8010507042253527 0.08546704225352131
H -1.9759254929577463 1.2426607042253535 -1.5115229577464788
C -0.4680254929577463 1.8513207042253539 1.4698070422535212
H -1.3950654929577464 1.5446707042253527 3.404047042253521
H 0.1461845070422536 1.9972507042253538 -0.6030529577464789
C -1.8679654929577463 -2.0866092957746467 -0.08765295774647863
C -0.6628654929577462 -1.814079295774647 0.5787970422535212
C -1.8438954929577462 -2.213429295774647 -1.4808029577464787
C 0.5129345070422537 -1.5763292957746469 -0.13022295774647863
H -0.6401854929577462 -1.7032692957746463 1.6609470422535213
C -0.6547954929577462 -1.9962392957746466 -2.1933129577464787
H -2.7578654929577464 -2.4351492957746466 -2.026182957746479
C 0.5308845070422537 -1.645769295774647 -1.5261029577464789
H 1.4044045070422537 -1.2610992957746463 0.41551704225352126
H -0.6795654929577464 -2.0467992957746466 -3.2793129577464786
C 1.7843245070422535 -1.2521692957746469 -2.2771629577464787
H 1.4981245070422535 -0.9384492957746469 -3.290282957746479
H 2.241984507042254 -0.38631929577464685 -1.8135029577464787
C 0.9385645070422537 2.0647807042253534 1.9815670422535212
H 1.0508945070422537 1.5807407042253532 2.9609770422535213
H 1.6053245070422537 1.5496207042253536 1.3096170422535214
C 3.9676945070422533 -1.6881692957746468 -3.314052957746479
H 4.795084507042254 -2.398849295774647 -3.4044129577464783
H 3.548404507042253 -1.4816192957746468 -4.303802957746479
H 4.307714507042253 -0.7637192957746466 -2.851282957746479
C 2.344694507042253 -3.565079295774647 -3.101282957746479
H 1.6334345070422536 -4.047909295774646 -2.4251929577464786
H 1.8561845070422536 -3.293109295774647 -4.041792957746479
H 3.1808045070422537 -4.243519295774647 -3.298122957746479
C 3.5156645070422536 -2.648489295774647 -1.1110629577464786
H 3.9311845070422535 -1.748249295774647 -0.6771029577464787
H 2.767184507042254 -3.1044092957746465 -0.45972295774647876
H 4.319224507042254 -3.371819295774647 -1.2863129577464787
C 2.963994507042253 3.381090704225353 2.401027042253521
H 3.3337945070422537 4.369820704225353 2.6912870422535216
H 3.120994507042253 2.671350704225353 3.2183370422535216
H 3.4665445070422534 3.0664207042253535 1.4881370422535212
C 1.2973745070422538 4.282440704225354 0.8488370422535213
H 1.7592145070422538 3.7367207042253527 0.02653704225352116
H 0.23311450704225378 4.4484607042253534 0.6605570422535213
H 1.7921845070422535 5.251370704225354 0.9736770422535213
C 0.7724845070422537 4.194670704225353 3.2772470422535216
H -0.2956954929577462 4.278220704225354 3.057857042253521
H 0.9298945070422537 3.612620704225354 4.190337042253521
H 1.2046345070422537 5.193640704225353 3.3918370422535213
N 2.876084507042253 -2.324759295774647 -2.4576629577464786
N 1.4527845070422536 3.504690704225353 2.1388470422535213
C -3.593905492957746 -3.637819295774647 0.8297870422535213
H -2.8952554929577463 -1.8680692957746468 1.7595270422535212
H -5.022615492957747 -1.2402792957746467 1.1579970422535213
H -4.898275492957747 -1.7933092957746464 -0.48931295774647876
H -3.883675492957746 0.07871070422535364 -1.2758929577464788
H -3.8751654929577466 -4.038529295774646 -0.1505529577464788
H -4.4603554929577465 -3.7321892957746465 1.4932570422535212
H -2.7953554929577464 -4.271929295774647 1.2313670422535212
H -5.648775492957746 1.147700704225353 0.9733970422535213
H -6.189795492957747 0.5254307042253537 -0.5943629577464788
H -5.2178854929577465 2.002970704225354 -0.5139729577464787
C 3.6710445070422537 1.0263707042253536 -0.27764295774647874
O 2.7356545070422538 1.6631507042253526 -0.7327029577464788
O 3.650814507042253 0.3883007042253537 0.7790570422535212
O 4.756604507042254 0.8696707042253538 -0.8334829577464786
O -9.762008610881798 1.6675246961220989 -7.184541578045982
H -10.365272458419136 2.41619690911247 -7.0640011091131525
H -9.296683729467402 1.603078425930011 -6.337026753812798
O 0.5249742788717899 6.600786344042112 8.020235728731503
H 0.5755275520328031 6.276175417837892 8.931849391453571
H 0.3739220580458644 7.552849168960855 8.118833640937078
O -2.1980096592387657 -1.4785194740964585 -12.060202989914732
H -2.1549167254657946 -1.4589977088309483 -13.028050734469504
H -2.544884901314357 -0.6051905930364989 -11.823694689338286
O 8.307147328482177 -6.405357484589387 9.237310176017756
H 7.949752167861883 -6.249213258165385 10.124358673350143
H 7.968597702117339 -5.663016152530647 8.714552639959704
O 0.4832689795217687 2.796269603533035 5.922346805457505
H 0.43831920620006704 2.7929434478387343 6.890301252457274
H -0.4328589998130127 2.6454856843582535 5.644973988659856
O 11.815971429014098 -7.265154987741543 5.79486656023857
H 12.424144979439708 -7.16482636155663 6.5425472783466105
H 12.375939377669642 -7.122884196587725 5.01694827226549
O -9.059096148133786 -0.3394507981740249 -0.6080967060499021
H -9.229810722481169 -1.1133542230214313 -0.050514981084987975
H -8.131781895072542 -0.12228359458509042 -0.429522838827319
O -4.518119936594033 7.389442366445648 2.823435178442616
H -4.446547971673357 7.493988770182296 1.8627505995078193
H -3.611118338228244 7.1990281747191025 3.1063706489142944
O 11.533742774506402 4.4423650738192775 -7.982396132542579
H 11.558955942815944 5.067513151462693 -7.242449151967255
H 11.134607818511153 4.950437837643491 -8.704556293353667
O 13.569930161195721 -1.6286589749886997 -4.794683712540806
H 13.959470551158233 -0.8094107358738567 -5.13535652360016
H 13.568141357024512 -1.5050012479577437 -3.8336074871428543
O -0.018224535178580803 -4.904400022133238 -8.720782631833611
H -0.3377614017134274 -5.625330211462446 -9.283919568944688
H -0.688084746320873 -4.837311627156798 -8.023826113040734
O 9.63192156688764 4.507484064568345 5.564085061083511
H 9.740963328691922 4.214312920298419 6.481215330592745
H 9.163710432409454 5.352228498518072 5.64248862708407
O -3.8616764268530868 4.758582510844791 -4.9516875223487995
H -3.4992283524871213 5.274631791761076 -5.687412939847876
H -3.8272708950448835 3.843435742977978 -5.268364955936859
O 0.707296131569477 7.366470620081963 -2.6012986702011283
H 0.12605181318937975 6.7925402645173865 -2.0800248973980295
H 1.5479169215554758 7.347754917916662 -2.119667738640691
O 4.729683146983051 -5.8324900726938145 8.20728644509312
H 5.202585289387583 -5.9031128341529975 9.050105136255748
H 5.402553742327158 -5.513207435063612 7.587394758159695
O -8.831498085348246 8.456422854568984 -4.080602931482035
H -8.731050938046293 9.420132476324621 -4.068707872234276
H -7.951826415732596 8.126463442874591 -3.843397356906086
O -7.117603098080657 3.7146995230278783 2.521974567379336
H -7.812582108865602 3.0824324752083077 2.759060863292673
H -7.585647140074903 4.559872717887025 2.44728193223187
O 6.222125544871148 -5.463255270936376 -11.334854626868234
H 6.0326337038910225 -5.904309814115167 -10.493111739138666
H 6.1891335475698295 -4.519578283785172 -11.11726047176452
O 8.548811825282199 7.255921109428066 6.295553437472364
H 9.001609309422735 8.069681140240965 6.563389968788369
H 8.690668261961688 7.213464384060126 5.337933407322812
O -7.822035678689199 6.211000522010973 9.349796939625493
H -7.903035586837694 6.150957042847667 10.31354024175003
H -7.642899854091663 5.299891844181148 9.072753120295504
O 9.219022346716446 1.9128738138779826 -0.42680844858251765
H 9.512635419685108 2.514362060411348 -1.1275013981432496
H 9.981592799188117 1.3329575041467665 -0.28139413352075726
O -2.135473995262943 2.7367017287321493 6.5526242149192715
H -2.1580012680826095 2.5038364020795356 7.492961185649594
H -1.340344482882406 2.2933610011709926 6.220690483389869
O -0.2253996067245394 -4.7787723630396455 -0.9723150662311366
H 0.004197361726816284 -5.004447921881289 -1.886275202735711
H 0.5782935469498162 -4.984295765087415 -0.47151631398860266
O 3.5625376717031276 -0.024722046963532307 3.7754176205648724
H 3.3952518591826526 -0.18020891647187404 4.7171217392984905
H 4.253816823566236 -0.6657897125212541 3.5515262927386377
C 5.69229256488597 -0.3312769468558403 -6.749733198097621
O 4.678876866361173 0.3054161311778034 -6.7704407732222815
O 6.705708263410767 -0.9679700248894836 -6.72902562297296