146

C -5.3564454929577465 1.0091607042253532 -0.0734429577464788
C -4.079135492957747 0.16955070422535368 -0.19788295774647868
C -4.333545492957747 -1.2789292957746463 0.3017270422535212
C -3.1403854929577464 -2.1745492957746464 0.7330270422535212
C -2.905235492957746 0.902300704225353 0.41966704225352136
C -2.7423854929577463 1.056130704225354 1.8024770422535212
C -1.8861754929577463 1.3499307042253532 -0.4326129577464788
C -1.5304554929577463 1.5279207042253526 2.3254170422535214
H -3.5237954929577464 0.7301007042253529 2.484817042253521
C -0.6776454929577462 1.8010507042253527 0.08546704225352131
H -1.9759254929577463 1.2426607042253535 -1.5115229577464788
C -0.4680254929577463 1.8513207042253539 1.4698070422535212
H -1.3950654929577464 1.5446707042253527 3.404047042253521
H 0.1461845070422536 1.9972507042253538 -0.6030529577464789
C -1.8679654929577463 -2.0866092957746467 -0.08765295774647863
C -0.6628654929577462 -1.814079295774647 0.5787970422535212
C -1.8438954929577462 -2.213429295774647 -1.4808029577464787
C 0.5129345070422537 -1.5763292957746469 -0.13022295774647863
H -0.6401854929577462 -1.7032692957746463 1.6609470422535213
C -0.6547954929577462 -1.9962392957746466 -2.1933129577464787
H -2.7578654929577464 -2.4351492957746466 -2.026182957746479
C 0.5308845070422537 -1.645769295774647 -1.5261029577464789
H 1.4044045070422537 -1.2610992957746463 0.41551704225352126
H -0.6795654929577464 -2.0467992957746466 -3.2793129577464786
C 1.7843245070422535 -1.2521692957746469 -2.2771629577464787
H 1.4981245070422535 -0.9384492957746469 -3.290282957746479
H 2.241984507042254 -0.38631929577464685 -1.8135029577464787
C 0.9385645070422537 2.0647807042253534 1.9815670422535212
H 1.0508945070422537 1.5807407042253532 2.9609770422535213
H 1.6053245070422537 1.5496207042253536 1.3096170422535214
C 3.9676945070422533 -1.6881692957746468 -3.314052957746479
H 4.795084507042254 -2.398849295774647 -3.4044129577464783
H 3.548404507042253 -1.4816192957746468 -4.303802957746479
H 4.307714507042253 -0.7637192957746466 -2.851282957746479
C 2.344694507042253 -3.565079295774647 -3.101282957746479
H 1.6334345070422536 -4.047909295774646 -2.4251929577464786
H 1.8561845070422536 -3.293109295774647 -4.041792957746479
H 3.1808045070422537 -4.243519295774647 -3.298122957746479
C 3.5156645070422536 -2.648489295774647 -1.1110629577464786
H 3.9311845070422535 -1.748249295774647 -0.6771029577464787
H 2.767184507042254 -3.1044092957746465 -0.45972295774647876
H 4.319224507042254 -3.371819295774647 -1.2863129577464787
C 2.963994507042253 3.381090704225353 2.401027042253521
H 3.3337945070422537 4.369820704225353 2.6912870422535216
H 3.120994507042253 2.671350704225353 3.2183370422535216
H 3.4665445070422534 3.0664207042253535 1.4881370422535212
C 1.2973745070422538 4.282440704225354 0.8488370422535213
H 1.7592145070422538 3.7367207042253527 0.02653704225352116
H 0.23311450704225378 4.4484607042253534 0.6605570422535213
H 1.7921845070422535 5.251370704225354 0.9736770422535213
C 0.7724845070422537 4.194670704225353 3.2772470422535216
H -0.2956954929577462 4.278220704225354 3.057857042253521
H 0.9298945070422537 3.612620704225354 4.190337042253521
H 1.2046345070422537 5.193640704225353 3.3918370422535213
N 2.876084507042253 -2.324759295774647 -2.4576629577464786
N 1.4527845070422536 3.504690704225353 2.1388470422535213
C -3.593905492957746 -3.637819295774647 0.8297870422535213
H -2.8952554929577463 -1.8680692957746468 1.7595270422535212
H -5.022615492957747 -1.2402792957746467 1.1579970422535213
H -4.898275492957747 -1.7933092957746464 -0.48931295774647876
H -3.883675492957746 0.07871070422535364 -1.2758929577464788
H -3.8751654929577466 -4.038529295774646 -0.1505529577464788
H -4.4603554929577465 -3.7321892957746465 1.4932570422535212
H -2.7953554929577464 -4.271929295774647 1.2313670422535212
H -5.648775492957746 1.147700704225353 0.9733970422535213
H -6.189795492957747 0.5254307042253537 -0.5943629577464788
H -5.2178854929577465 2.002970704225354 -0.5139729577464787
C 3.6710445070422537 1.0263707042253536 -0.27764295774647874
O 2.7356545070422538 1.6631507042253526 -0.7327029577464788
O 3.650814507042253 0.3883007042253537 0.7790570422535212
O 4.756604507042254 0.8696707042253538 -0.8334829577464786
O -3.8128319393945653 -9.165881622541503 2.84537332762645
H -2.989933506991588 -9.272371231885275 3.3458386010975825
H -3.8729902881898313 -9.976918698767479 2.318532005825427
O 12.430540374084611 0.8021763327743332 3.634735177518333
H 12.194661920412656 0.7218455466066218 2.6983187761311056
H 11.577432049268388 0.9021729414132769 4.083253637216446
O -7.616397794411201 -4.6621025368610525 5.863492416597755
H -7.2639392566616685 -4.7855958390463 6.757634318301756
H -7.932947033825524 -5.543004579626251 5.612952770277429
O -10.053768028804397 -8.602950990455414 -0.4185705810655138
H -9.628318088063248 -8.208442599738662 0.35752402301148534
H -10.517908833672006 -7.860548468107222 -0.8337497621041186
O 8.544112671331511 -4.518939306933667 -11.252164036737106
H 9.260248763749608 -3.9648164819605083 -11.597221059386845
H 8.861548109187398 -4.7948913907975115 -10.3792109254508
O 3.1820038742844705 0.41633667305492894 4.654875430511142
H 3.6949587744733186 0.023348961789418643 3.932791442275324
H 3.643781629980697 1.2467261837994608 4.845076663655441
O -5.787458732193775 6.339311049154698 5.087833190814349
H -5.523764679605723 6.543898101040781 5.997545750764056
H -5.330285083848597 5.507429194347622 4.893085201860681
O 1.333053691146049 -3.8796750842636847 -10.462461119601048
H 2.163999351142281 -3.694949776194545 -10.92546568501287
H 0.7473868772622785 -4.215376175735795 -11.157630958273344
O -6.021764711477569 -6.760404663200024 -8.241043399345056
H -5.527708993446797 -7.589001372972673 -8.332168571142093
H -6.868785861678171 -6.944069908400465 -8.674384134931165
O -4.357006017084719 -8.28717260926373 -3.814715354049613
H -4.470501922044381 -7.436432906006289 -4.264524195402059
H -5.182463202027249 -8.40257760248006 -3.3204845702375447
O 2.5952403446044827 8.83029760238795 -0.3226689452859439
H 2.5902283549341663 7.942481091575239 0.06556304719778838
H 2.5722745825814135 8.668244292666522 -1.2777465562071875
O -7.739488439708296 -9.224104355436694 0.9420588959820555
H -7.488107961580928 -9.201162865658388 0.006511516015007102
H -8.444495237948033 -8.562940384885588 1.0112655631525749
O 8.49824318841852 7.171096163032006 1.1657200762801532
H 9.31436105179531 6.651975811778826 1.2243123188731992
H 8.782763696994405 8.011274034290949 0.7757057571244177
O 1.911195229674925 -2.0222850257107075 -12.032598973401718
H 1.0622720316574923 -2.158245575383205 -12.479601758293054
H 2.350155984764661 -2.883765820247497 -12.096834792344964
O 0.7602185166911436 -0.2216241986739334 8.774494606864126
H 0.10683267245385228 -0.11772160301073703 8.066498458523775
H 0.4697377168072816 -1.0166316094569576 9.246242490800984
O 0.008219165163918074 -3.75523259796688 -8.90109170300543
H 0.14460564124693542 -4.086589397988082 -8.000775782274621
H 0.8984198573543631 -3.743880395153984 -9.283682606471451
O -7.311562516207077 0.2690535671274681 -10.011241215006413
H -7.272201088038104 -0.05859295841805201 -10.922320678703434
H -7.881599160489959 -0.36962349583480014 -9.557245865117668
O -9.146823702505854 2.0413846543331773 -10.200644416189874
H -10.097467377442623 1.8540441708327613 -10.188499316579382
H -8.906104992050517 2.09128750804905 -9.263347157083814
O 1.105631553257227 -1.4574037230994057 5.938862921542936
H 1.137522863091939 -1.4182518574262215 6.906549561251957
H 1.7099378054688816 -0.7546642313625482 5.656138489292509
O -0.6518755878937865 -3.970212065393789 -1.9664885109730812
H -0.24102020524055678 -4.3634597882442705 -1.1819367663967402
H -0.2727726243571804 -3.0793959423529014 -2.0075923096803225
O -15.199916134491499 2.337553086839902 -1.8702076822626355
H -15.821838903293125 3.04593228143856 -2.094658886772379
H -14.895212590290319 2.0122730051701447 -2.7306207010624193
O -2.847155603822393 -4.335551552278638 6.112258795104723
H -2.9548575511086 -5.209720948189392 6.516233441219785
H -2.923080918008597 -4.506152473246964 5.161420945242568
O 9.948106120133465 -7.839440276366295 7.197881345249771
H 9.807907775325557 -8.219547815833014 6.317637038563452
H 9.485015153785817 -8.448626213196018 7.79235690871398
O -1.8891506826806066 10.237772676435412 10.07646851841317
H -1.2011235669743558 10.46109194509278 9.431709222862281
H -2.027253763771617 9.28684082246771 9.951496151856727
C -3.1396376158052846 -3.708354332828555 -15.111511630705376
O -2.5521292435831704 -2.860502654432705 -14.504222818598432
O -3.7271459880273987 -4.556206011224403 -15.718800442812322