146

C -5.3564454929577465 1.0091607042253532 -0.0734429577464788
C -4.079135492957747 0.16955070422535368 -0.19788295774647868
C -4.333545492957747 -1.2789292957746463 0.3017270422535212
C -3.1403854929577464 -2.1745492957746464 0.7330270422535212
C -2.905235492957746 0.902300704225353 0.41966704225352136
C -2.7423854929577463 1.056130704225354 1.8024770422535212
C -1.8861754929577463 1.3499307042253532 -0.4326129577464788
C -1.5304554929577463 1.5279207042253526 2.3254170422535214
H -3.5237954929577464 0.7301007042253529 2.484817042253521
C -0.6776454929577462 1.8010507042253527 0.08546704225352131
H -1.9759254929577463 1.2426607042253535 -1.5115229577464788
C -0.4680254929577463 1.8513207042253539 1.4698070422535212
H -1.3950654929577464 1.5446707042253527 3.404047042253521
H 0.1461845070422536 1.9972507042253538 -0.6030529577464789
C -1.8679654929577463 -2.0866092957746467 -0.08765295774647863
C -0.6628654929577462 -1.814079295774647 0.5787970422535212
C -1.8438954929577462 -2.213429295774647 -1.4808029577464787
C 0.5129345070422537 -1.5763292957746469 -0.13022295774647863
H -0.6401854929577462 -1.7032692957746463 1.6609470422535213
C -0.6547954929577462 -1.9962392957746466 -2.1933129577464787
H -2.7578654929577464 -2.4351492957746466 -2.026182957746479
C 0.5308845070422537 -1.645769295774647 -1.5261029577464789
H 1.4044045070422537 -1.2610992957746463 0.41551704225352126
H -0.6795654929577464 -2.0467992957746466 -3.2793129577464786
C 1.7843245070422535 -1.2521692957746469 -2.2771629577464787
H 1.4981245070422535 -0.9384492957746469 -3.290282957746479
H 2.241984507042254 -0.38631929577464685 -1.8135029577464787
C 0.9385645070422537 2.0647807042253534 1.9815670422535212
H 1.0508945070422537 1.5807407042253532 2.9609770422535213
H 1.6053245070422537 1.5496207042253536 1.3096170422535214
C 3.9676945070422533 -1.6881692957746468 -3.314052957746479
H 4.795084507042254 -2.398849295774647 -3.4044129577464783
H 3.548404507042253 -1.4816192957746468 -4.303802957746479
H 4.307714507042253 -0.7637192957746466 -2.851282957746479
C 2.344694507042253 -3.565079295774647 -3.101282957746479
H 1.6334345070422536 -4.047909295774646 -2.4251929577464786
H 1.8561845070422536 -3.293109295774647 -4.041792957746479
H 3.1808045070422537 -4.243519295774647 -3.298122957746479
C 3.5156645070422536 -2.648489295774647 -1.1110629577464786
H 3.9311845070422535 -1.748249295774647 -0.6771029577464787
H 2.767184507042254 -3.1044092957746465 -0.45972295774647876
H 4.319224507042254 -3.371819295774647 -1.2863129577464787
C 2.963994507042253 3.381090704225353 2.401027042253521
H 3.3337945070422537 4.369820704225353 2.6912870422535216
H 3.120994507042253 2.671350704225353 3.2183370422535216
H 3.4665445070422534 3.0664207042253535 1.4881370422535212
C 1.2973745070422538 4.282440704225354 0.8488370422535213
H 1.7592145070422538 3.7367207042253527 0.02653704225352116
H 0.23311450704225378 4.4484607042253534 0.6605570422535213
H 1.7921845070422535 5.251370704225354 0.9736770422535213
C 0.7724845070422537 4.194670704225353 3.2772470422535216
H -0.2956954929577462 4.278220704225354 3.057857042253521
H 0.9298945070422537 3.612620704225354 4.190337042253521
H 1.2046345070422537 5.193640704225353 3.3918370422535213
N 2.876084507042253 -2.324759295774647 -2.4576629577464786
N 1.4527845070422536 3.504690704225353 2.1388470422535213
C -3.593905492957746 -3.637819295774647 0.8297870422535213
H -2.8952554929577463 -1.8680692957746468 1.7595270422535212
H -5.022615492957747 -1.2402792957746467 1.1579970422535213
H -4.898275492957747 -1.7933092957746464 -0.48931295774647876
H -3.883675492957746 0.07871070422535364 -1.2758929577464788
H -3.8751654929577466 -4.038529295774646 -0.1505529577464788
H -4.4603554929577465 -3.7321892957746465 1.4932570422535212
H -2.7953554929577464 -4.271929295774647 1.2313670422535212
H -5.648775492957746 1.147700704225353 0.9733970422535213
H -6.189795492957747 0.5254307042253537 -0.5943629577464788
H -5.2178854929577465 2.002970704225354 -0.5139729577464787
C 3.6710445070422537 1.0263707042253536 -0.27764295774647874
O 2.7356545070422538 1.6631507042253526 -0.7327029577464788
O 3.650814507042253 0.3883007042253537 0.7790570422535212
O 4.756604507042254 0.8696707042253538 -0.8334829577464786
O -8.812313688864704 2.652200218278863 -0.668384753601845
H -8.130368972728032 2.0915131693098266 -0.26894915910422157
H -9.023864480906374 3.2940945128356165 0.026007009959638616
O -10.70508638089019 1.4140738493098173 -8.842294076947308
H -10.91473537456109 1.8734979870929074 -9.669303217147734
H -9.940670662750959 1.8968467726099254 -8.493638288683366
O 3.1319394483546663 -8.533347572488994 5.900166843849382
H 2.766381988996245 -8.15451463848741 6.7136904814427645
H 2.721647425303098 -8.011717785340487 5.194103981719066
O -3.090507959575758 -5.03396269628468 10.172882721295913
H -3.0222371894007205 -5.026106826047528 11.139446089183672
H -2.26214058248404 -5.444783946747906 9.883063237758284
O -6.192660524339511 -4.193656744858919 -2.2773014298183396
H -6.67363891333661 -4.2179581950796265 -1.4364467540657888
H -6.255282169953201 -5.101924222196926 -2.609100560936377
O 4.23381950387811 -11.212956768592754 -1.7688171344248331
H 4.998468169252531 -11.78279272721657 -1.9407669983398566
H 3.4716815463279955 -11.791630155595023 -1.9212795531930733
O 4.6431332599732915 9.872699985196888 -2.654133599908736
H 4.448094638600809 10.195262387875294 -3.546815396212132
H 5.264115054823659 9.14314317255498 -2.7993589829937724
O -5.746130979838433 8.913481935299066 4.020863257512545
H -6.470993500545408 8.513881839142119 3.5170166080985665
H -4.978918806229589 8.827814038757836 3.435194036476818
O -3.3022460406531096 10.833688279577148 -8.254749122225755
H -3.153698898143287 11.145280619470537 -9.160183447327212
H -2.409956468074007 10.669862245645957 -7.914246121397599
O -0.6848041896237214 -1.235967557599016 12.31417585589569
H -0.5613935465831681 -1.7077479133672286 13.15152910631963
H -0.4990939647157191 -0.31137280690060987 12.536882397437628
O 0.7999461882232347 -6.5068491460304445 -4.513229111665845
H 0.3081801082263693 -5.9440606378583 -5.129996956591218
H 0.29475313587112184 -6.4474322911416495 -3.688479718510398
O 1.8781875379923045 7.612347733157292 -11.549435476237788
H 2.4785985050934976 7.632954925161709 -12.309731057654849
H 1.1849608460164944 8.248447427316597 -11.781331739516677
O 7.541610803322703 -0.08455968451993168 5.239233275958691
H 7.992814676941967 0.031561577380369285 6.08887924568117
H 8.132940006332058 0.34071778940909625 4.600147375522085
O 4.602228035043524 0.5248561292649536 11.463356665257574
H 4.268813149063607 -0.13839745769341727 12.08617008041002
H 5.468831842416904 0.7681414351157994 11.822204885683735
O 0.7045645480144853 -10.40280579843412 4.43393291896615
H 0.9253016190971564 -10.80164708992114 3.578849223322962
H 0.008168331399167172 -9.763479859449177 4.221196938170964
O 0.7005728297384621 5.879115353969253 -1.3017410708731654
H 0.27142204353196053 6.740801620558899 -1.1908639426223906
H 0.2637577138188485 5.314087964700356 -0.6468376060937309
O 4.013668183960503 -10.457723166641916 2.2087959769103067
H 3.1269644723096324 -10.674763316822576 1.8838075804187877
H 3.891514190772593 -10.342724678828098 3.1631626224133775
O -6.00433493936349 -7.785894895389067 7.642582859790364
H -6.912114716819657 -8.074762345413498 7.465216490774095
H -6.000361984750998 -6.852797498656182 7.3812872261836
O 6.949379914599268 -0.5408802264741323 9.292360241219432
H 6.897759500938156 -1.3011444825614622 8.69377779016575
H 7.881821708878468 -0.5122254409075245 9.554454018035132
O -4.719272718635366 -1.9141429010075637 11.619587792746435
H -4.407262955024103 -2.8088128851548904 11.416652128613519
H -3.914129981839129 -1.4366525992416912 11.870007698911662
O -1.2146190554305232 10.7679163821954 4.577798605581157
H -0.85735056058697 11.44607658051797 5.1706099793783515
H -1.6566123986001076 10.145037268368084 5.174141995291708
O -5.164189080751381 -9.557450904890276 6.383333714864405
H -5.760568434965464 -9.77602020784787 5.6515369653691465
H -5.181862060212657 -10.347781823095989 6.943714522730876
O 4.2905422492469345 4.143819832461746 -9.252377253445843
H 4.706581201622722 4.05921748677754 -8.38133110649909
H 4.3795122447950945 5.085277267876055 -9.463810887230236
O -0.7416208883696511 3.754701710561408 8.287001403949347
H 0.04424335003569335 3.1881201932899446 8.267762381574098
H -0.3827761574239127 4.654013977688775 8.249188052250298
C 6.229322048796723 -3.49869915647694 -8.399205974743934
O 6.192929599330847 -3.831653189530177 -7.250016930767506
O 6.2657144982626 -3.165745123423702 -9.548395018720363