146

C -5.3564454929577465 1.0091607042253532 -0.0734429577464788
C -4.079135492957747 0.16955070422535368 -0.19788295774647868
C -4.333545492957747 -1.2789292957746463 0.3017270422535212
C -3.1403854929577464 -2.1745492957746464 0.7330270422535212
C -2.905235492957746 0.902300704225353 0.41966704225352136
C -2.7423854929577463 1.056130704225354 1.8024770422535212
C -1.8861754929577463 1.3499307042253532 -0.4326129577464788
C -1.5304554929577463 1.5279207042253526 2.3254170422535214
H -3.5237954929577464 0.7301007042253529 2.484817042253521
C -0.6776454929577462 1.8010507042253527 0.08546704225352131
H -1.9759254929577463 1.2426607042253535 -1.5115229577464788
C -0.4680254929577463 1.8513207042253539 1.4698070422535212
H -1.3950654929577464 1.5446707042253527 3.404047042253521
H 0.1461845070422536 1.9972507042253538 -0.6030529577464789
C -1.8679654929577463 -2.0866092957746467 -0.08765295774647863
C -0.6628654929577462 -1.814079295774647 0.5787970422535212
C -1.8438954929577462 -2.213429295774647 -1.4808029577464787
C 0.5129345070422537 -1.5763292957746469 -0.13022295774647863
H -0.6401854929577462 -1.7032692957746463 1.6609470422535213
C -0.6547954929577462 -1.9962392957746466 -2.1933129577464787
H -2.7578654929577464 -2.4351492957746466 -2.026182957746479
C 0.5308845070422537 -1.645769295774647 -1.5261029577464789
H 1.4044045070422537 -1.2610992957746463 0.41551704225352126
H -0.6795654929577464 -2.0467992957746466 -3.2793129577464786
C 1.7843245070422535 -1.2521692957746469 -2.2771629577464787
H 1.4981245070422535 -0.9384492957746469 -3.290282957746479
H 2.241984507042254 -0.38631929577464685 -1.8135029577464787
C 0.9385645070422537 2.0647807042253534 1.9815670422535212
H 1.0508945070422537 1.5807407042253532 2.9609770422535213
H 1.6053245070422537 1.5496207042253536 1.3096170422535214
C 3.9676945070422533 -1.6881692957746468 -3.314052957746479
H 4.795084507042254 -2.398849295774647 -3.4044129577464783
H 3.548404507042253 -1.4816192957746468 -4.303802957746479
H 4.307714507042253 -0.7637192957746466 -2.851282957746479
C 2.344694507042253 -3.565079295774647 -3.101282957746479
H 1.6334345070422536 -4.047909295774646 -2.4251929577464786
H 1.8561845070422536 -3.293109295774647 -4.041792957746479
H 3.1808045070422537 -4.243519295774647 -3.298122957746479
C 3.5156645070422536 -2.648489295774647 -1.1110629577464786
H 3.9311845070422535 -1.748249295774647 -0.6771029577464787
H 2.767184507042254 -3.1044092957746465 -0.45972295774647876
H 4.319224507042254 -3.371819295774647 -1.2863129577464787
C 2.963994507042253 3.381090704225353 2.401027042253521
H 3.3337945070422537 4.369820704225353 2.6912870422535216
H 3.120994507042253 2.671350704225353 3.2183370422535216
H 3.4665445070422534 3.0664207042253535 1.4881370422535212
C 1.2973745070422538 4.282440704225354 0.8488370422535213
H 1.7592145070422538 3.7367207042253527 0.02653704225352116
H 0.23311450704225378 4.4484607042253534 0.6605570422535213
H 1.7921845070422535 5.251370704225354 0.9736770422535213
C 0.7724845070422537 4.194670704225353 3.2772470422535216
H -0.2956954929577462 4.278220704225354 3.057857042253521
H 0.9298945070422537 3.612620704225354 4.190337042253521
H 1.2046345070422537 5.193640704225353 3.3918370422535213
N 2.876084507042253 -2.324759295774647 -2.4576629577464786
N 1.4527845070422536 3.504690704225353 2.1388470422535213
C -3.593905492957746 -3.637819295774647 0.8297870422535213
H -2.8952554929577463 -1.8680692957746468 1.7595270422535212
H -5.022615492957747 -1.2402792957746467 1.1579970422535213
H -4.898275492957747 -1.7933092957746464 -0.48931295774647876
H -3.883675492957746 0.07871070422535364 -1.2758929577464788
H -3.8751654929577466 -4.038529295774646 -0.1505529577464788
H -4.4603554929577465 -3.7321892957746465 1.4932570422535212
H -2.7953554929577464 -4.271929295774647 1.2313670422535212
H -5.648775492957746 1.147700704225353 0.9733970422535213
H -6.189795492957747 0.5254307042253537 -0.5943629577464788
H -5.2178854929577465 2.002970704225354 -0.5139729577464787
C 3.6710445070422537 1.0263707042253536 -0.27764295774647874
O 2.7356545070422538 1.6631507042253526 -0.7327029577464788
O 3.650814507042253 0.3883007042253537 0.7790570422535212
O 4.756604507042254 0.8696707042253538 -0.8334829577464786
O -0.3928174016812003 -1.118333912537663 -12.021501841824122
H -0.6551827049169796 -1.8127372246721876 -12.644346802191146
H 0.07051002462291645 -1.5975861288638689 -11.318218859319341
O -0.8702709560448305 7.396650254466493 -4.453557007158464
H -1.5058628587228258 6.821652957595136 -4.001485775226151
H -1.2179025743929746 7.466343667193785 -5.3553646531934005
O -8.339290297148942 5.470009223451823 1.7802901906339756
H -9.264451146919836 5.524686989269574 2.0632302918504344
H -8.337015954066837 4.75720949444087 1.1238807772451544
O -2.777450426060262 -7.978789103758059 1.2118540156810742
H -2.626186607128822 -7.25891167194234 0.5810901159969842
H -3.5132311176354385 -7.661694847701601 1.7568677320049428
O 3.597220805596727 -11.373335891107306 8.894995011212691
H 3.011677948461805 -11.794861368396077 9.541851402813442
H 3.194514372499563 -11.587745395474201 8.040116050494099
O -8.909857232883342 2.7892183591726734 -5.698255043561258
H -8.841803284823015 2.813792476979592 -4.731956885751043
H -8.303743814306584 3.485281058224022 -5.993357037981063
O 7.499607974537923 3.9718069579758954 -0.5711428402685854
H 7.128166058371025 3.1320890941997126 -0.8807751529709702
H 7.684066918506414 3.814374636716712 0.36702127464573686
O 2.0936454653535064 5.207576960969404 -5.99756451210709
H 1.9547778613006535 6.151981253419966 -5.830880146176823
H 2.658109008326516 4.920942730114639 -5.263954485828377
O 3.397605284011023 -13.716707630466686 -3.4718660521755416
H 2.9086615243505287 -14.518013753221641 -3.712302851406608
H 2.7659049130429505 -12.99982891067308 -3.6331158172168525
O -0.40453756080951786 -14.21614482789834 -5.737559853537504
H -0.15992266029206137 -15.05106022329334 -5.310889969578901
H -1.06247756572082 -13.83145524985932 -5.139152949511928
O 8.236379328231319 5.4510068421332605 -2.1669384151838007
H 8.37272556674527 5.375887967528082 -1.2105210299271598
H 7.299819293728454 5.6845548560438965 -2.252217787076345
O 10.190074746200082 -5.18242143596282 13.209881059449447
H 11.111596514412982 -4.9206669252215915 13.355653360372465
H 9.985837540188879 -4.838373144594184 12.327339343048994
O -2.3788165510950448 11.14628386147233 1.2015989440811465
H -2.8415003673952914 11.354032353933702 2.0272693425537254
H -2.774963638129947 10.309533385568985 0.9154554996179096
O 0.5422927961610546 -7.5239483437400025 -9.340339617874491
H 0.26649825204445 -8.2342428081695 -9.938993524682362
H 1.0297227641121445 -6.912009805921667 -9.912095856647587
O 4.942369124083022 -5.228636487968575 14.836911371939179
H 5.336226314260838 -4.761004060763657 15.588685130241284
H 5.705636494026285 -5.57619175105301 14.351535017568464
O 7.896792847225338 9.312811033671567 5.362883777152312
H 7.9888756138514205 9.475676661217367 4.412114137147647
H 8.702266497946 8.827319897529899 5.596277219696442
O 7.559227554143469 6.714803711007889 -4.245261751550342
H 8.218517543502912 6.3377147452689035 -4.84701583649562
H 8.08575461324526 7.065622844381764 -3.5113291006944056
O 6.250988461018321 2.192581461739587 -5.120509354742575
H 6.10858893304115 1.587922419445731 -4.376817769537959
H 6.018970954340221 3.062622401398993 -4.762516918772965
O -1.977466815961967 -8.774072622752128 6.404198525023978
H -1.8819872127353983 -9.684458615075057 6.722079551903364
H -2.47442188999449 -8.331188725259043 7.108365729624325
O 2.84081935437948 3.7359606904664107 11.426716007495338
H 2.5994538278990653 4.504481863730436 11.965311631105223
H 2.0293706707176735 3.5270944127610795 10.94000474183464
O -7.829740583229616 -0.9524789987517921 3.1447001501155514
H -7.7956884122001675 -0.9436861953732789 2.176335294724294
H -6.974194769195066 -0.5845480791574995 3.412338231849925
O -6.3938402973403665 6.252117954042778 3.320266708690329
H -5.702919752828941 6.463537717826318 2.6745904418555106
H -6.024945936956716 5.510761425490132 3.8235254818374105
O -8.449170025319916 -3.845250170165841 7.182261441946006
H -7.656238971510348 -3.377429567255769 7.48453877205415
H -8.254048984668117 -4.064003230351928 6.2586615164078
O 7.319688502813639 -5.492806325388961 -7.377489794512175
H 7.253439903882375 -5.624256771770305 -8.335247206483386
H 6.411029959047255 -5.29527304887863 -7.10494218433838
C 0.9189808100092254 5.071030728803684 9.639027238613735
O 1.6188719270974774 5.971310135259847 9.275066153012679
O 0.21908969292097336 4.170751322347522 10.00298832421479