146

C -5.3564454929577465 1.0091607042253532 -0.0734429577464788
C -4.079135492957747 0.16955070422535368 -0.19788295774647868
C -4.333545492957747 -1.2789292957746463 0.3017270422535212
C -3.1403854929577464 -2.1745492957746464 0.7330270422535212
C -2.905235492957746 0.902300704225353 0.41966704225352136
C -2.7423854929577463 1.056130704225354 1.8024770422535212
C -1.8861754929577463 1.3499307042253532 -0.4326129577464788
C -1.5304554929577463 1.5279207042253526 2.3254170422535214
H -3.5237954929577464 0.7301007042253529 2.484817042253521
C -0.6776454929577462 1.8010507042253527 0.08546704225352131
H -1.9759254929577463 1.2426607042253535 -1.5115229577464788
C -0.4680254929577463 1.8513207042253539 1.4698070422535212
H -1.3950654929577464 1.5446707042253527 3.404047042253521
H 0.1461845070422536 1.9972507042253538 -0.6030529577464789
C -1.8679654929577463 -2.0866092957746467 -0.08765295774647863
C -0.6628654929577462 -1.814079295774647 0.5787970422535212
C -1.8438954929577462 -2.213429295774647 -1.4808029577464787
C 0.5129345070422537 -1.5763292957746469 -0.13022295774647863
H -0.6401854929577462 -1.7032692957746463 1.6609470422535213
C -0.6547954929577462 -1.9962392957746466 -2.1933129577464787
H -2.7578654929577464 -2.4351492957746466 -2.026182957746479
C 0.5308845070422537 -1.645769295774647 -1.5261029577464789
H 1.4044045070422537 -1.2610992957746463 0.41551704225352126
H -0.6795654929577464 -2.0467992957746466 -3.2793129577464786
C 1.7843245070422535 -1.2521692957746469 -2.2771629577464787
H 1.4981245070422535 -0.9384492957746469 -3.290282957746479
H 2.241984507042254 -0.38631929577464685 -1.8135029577464787
C 0.9385645070422537 2.0647807042253534 1.9815670422535212
H 1.0508945070422537 1.5807407042253532 2.9609770422535213
H 1.6053245070422537 1.5496207042253536 1.3096170422535214
C 3.9676945070422533 -1.6881692957746468 -3.314052957746479
H 4.795084507042254 -2.398849295774647 -3.4044129577464783
H 3.548404507042253 -1.4816192957746468 -4.303802957746479
H 4.307714507042253 -0.7637192957746466 -2.851282957746479
C 2.344694507042253 -3.565079295774647 -3.101282957746479
H 1.6334345070422536 -4.047909295774646 -2.4251929577464786
H 1.8561845070422536 -3.293109295774647 -4.041792957746479
H 3.1808045070422537 -4.243519295774647 -3.298122957746479
C 3.5156645070422536 -2.648489295774647 -1.1110629577464786
H 3.9311845070422535 -1.748249295774647 -0.6771029577464787
H 2.767184507042254 -3.1044092957746465 -0.45972295774647876
H 4.319224507042254 -3.371819295774647 -1.2863129577464787
C 2.963994507042253 3.381090704225353 2.401027042253521
H 3.3337945070422537 4.369820704225353 2.6912870422535216
H 3.120994507042253 2.671350704225353 3.2183370422535216
H 3.4665445070422534 3.0664207042253535 1.4881370422535212
C 1.2973745070422538 4.282440704225354 0.8488370422535213
H 1.7592145070422538 3.7367207042253527 0.02653704225352116
H 0.23311450704225378 4.4484607042253534 0.6605570422535213
H 1.7921845070422535 5.251370704225354 0.9736770422535213
C 0.7724845070422537 4.194670704225353 3.2772470422535216
H -0.2956954929577462 4.278220704225354 3.057857042253521
H 0.9298945070422537 3.612620704225354 4.190337042253521
H 1.2046345070422537 5.193640704225353 3.3918370422535213
N 2.876084507042253 -2.324759295774647 -2.4576629577464786
N 1.4527845070422536 3.504690704225353 2.1388470422535213
C -3.593905492957746 -3.637819295774647 0.8297870422535213
H -2.8952554929577463 -1.8680692957746468 1.7595270422535212
H -5.022615492957747 -1.2402792957746467 1.1579970422535213
H -4.898275492957747 -1.7933092957746464 -0.48931295774647876
H -3.883675492957746 0.07871070422535364 -1.2758929577464788
H -3.8751654929577466 -4.038529295774646 -0.1505529577464788
H -4.4603554929577465 -3.7321892957746465 1.4932570422535212
H -2.7953554929577464 -4.271929295774647 1.2313670422535212
H -5.648775492957746 1.147700704225353 0.9733970422535213
H -6.189795492957747 0.5254307042253537 -0.5943629577464788
H -5.2178854929577465 2.002970704225354 -0.5139729577464787
C 3.6710445070422537 1.0263707042253536 -0.27764295774647874
O 2.7356545070422538 1.6631507042253526 -0.7327029577464788
O 3.650814507042253 0.3883007042253537 0.7790570422535212
O 4.756604507042254 0.8696707042253538 -0.8334829577464786
O 3.2758082958453274 5.532938433337338 5.800352754880584
H 2.9256449617284517 5.710409993054833 6.6862742197021525
H 3.3167174127064123 6.40759234043379 5.385299829028278
O 4.539742356790413 -12.387081131838546 3.739430626993825
H 4.329663576203258 -13.024008490017136 4.438828799175206
H 5.0890418552782855 -11.724038540089127 4.1839601837020215
O 6.740350831472854 -1.3723287761543883 -8.331115991369414
H 6.0307895199571355 -2.0218476777029486 -8.214431379568014
H 7.507366161323548 -1.784720655849163 -7.906166152405047
O 2.203144278718475 -9.643748419881414 3.293264462989428
H 1.8180515311748375 -10.07751718716036 2.5170456863403468
H 3.0377640552672327 -9.276042449439963 2.965905192163914
O 1.1277561107034273 -0.47520837598090115 -8.427710342607652
H 0.9059436427683725 -0.0903292862531555 -7.566528206088956
H 1.3149847159175059 0.293922744828802 -8.98658842653258
O -3.6786135402843927 -8.269414143294682 -4.958213937328868
H -4.564196071295739 -8.294645595949898 -5.350736944889504
H -3.4157250654944207 -7.339781037082955 -5.033273127024305
O -3.033073920686282 5.842728532865029 7.982958238331756
H -3.1288406790545147 5.960011351763472 7.025858021383251
H -2.5514349611270912 6.633533167615259 8.26863968083773
O 7.970188144195902 -7.880409605336223 1.2049416303101772
H 8.047899212197283 -7.1796074155877125 0.5402577673694697
H 7.877815464545071 -8.690474746831686 0.6812779033936947
O 8.570775829189206 0.7045285162273203 12.266531344381072
H 8.175341016715135 0.8366455105854937 13.14125631017624
H 8.22100868434984 -0.15201219165402335 11.978498526054679
O 6.307213584998653 -8.851251616084307 7.079549675496844
H 5.988908050652371 -8.875257027172136 6.164632912100833
H 6.183043363805664 -7.928037951148624 7.34642086042491
O 2.6208389768785416 -8.06391248622191 6.266206004252463
H 2.762050233055071 -8.436011632935864 7.1497041440602365
H 2.7363517866349296 -8.82078306629622 5.672265215873555
O 6.361282802191939 5.291455047373284 1.4119616446632404
H 7.145790294606395 5.833142001139793 1.238495234759933
H 5.7400950797083565 5.548980195254054 0.714273637066258
O -3.856996340328088 -9.197710819837846 0.45919590786279585
H -3.8681161389744836 -8.843545921591925 1.361088879244944
H -3.212676453526345 -9.920341142525558 0.49943574513927436
O -2.700039285147271 11.865579037419707 -0.813936650759294
H -3.1812312882284823 11.729533177327694 -1.6439445645905515
H -2.1856809234232375 11.051558881318297 -0.7054534470584208
O 13.130057424344175 1.446624772999677 7.681772761365252
H 12.98994016718968 1.8962992475334364 6.834939024377708
H 13.688299567887611 0.6879341755174657 7.454360732738547
O 9.374409304472193 2.7581345185124926 5.797192448705192
H 9.57927981627142 2.9539354500679593 4.870554749549187
H 9.754510461168978 1.8783233501799588 5.940081787198686
O 4.532247125985073 12.114360437172769 -6.789658994899085
H 4.733694854409455 13.02427266694516 -6.52424252268364
H 4.2835503404216855 11.678383255663459 -5.9607827976575205
O -0.6728453685298499 -10.949383572194044 1.739214130012042
H -0.8187909621219478 -10.984460565223284 0.781907050141075
H -1.5030468708168123 -10.593117919257189 2.089645570436482
O 9.76987641043428 0.8228983564672676 -0.2053030371736042
H 9.85335753702626 0.5312155752964483 0.7149792095156333
H 10.683286931549324 0.843295606878181 -0.5281452840868874
O -1.6879914818836395 -1.1102846243567823 4.231152742250462
H -2.3379254323380714 -0.673818273327436 3.660144562479082
H -2.18007108966457 -1.2988072414158167 5.044343265291268
O -5.285592786404639 7.30626983869142 3.5915185760702824
H -5.260950687020761 6.554759106582696 2.9802970586452444
H -5.002603498935411 8.058084196868538 3.049619897056958
O -4.6465180615050485 -3.218790764795758 9.483498847508226
H -3.7467249268292093 -3.314743233822706 9.1368970653751
H -5.210647413279339 -3.3255223875062203 8.702903959310571
O 3.8440963963332666 4.649023053058671 -4.160554913261312
H 2.878923234683763 4.60736880868874 -4.085235268695818
H 4.157284408121391 3.9900276087805784 -3.522902799650041
O -9.896385263585872 4.440513826043201 -0.829462130848551
H -10.853150148401461 4.287938866075456 -0.8464678262078364
H -9.708568498481299 4.845134823764831 -1.6896764385930836
C -1.1134572748572396 2.723142649701404 15.380848973863259
O -1.710634439620982 2.925291301119178 14.363335527310973
O -0.5162801100934962 2.52099399828363 16.39836242041555