146

C -5.3564454929577465 1.0091607042253532 -0.0734429577464788
C -4.079135492957747 0.16955070422535368 -0.19788295774647868
C -4.333545492957747 -1.2789292957746463 0.3017270422535212
C -3.1403854929577464 -2.1745492957746464 0.7330270422535212
C -2.905235492957746 0.902300704225353 0.41966704225352136
C -2.7423854929577463 1.056130704225354 1.8024770422535212
C -1.8861754929577463 1.3499307042253532 -0.4326129577464788
C -1.5304554929577463 1.5279207042253526 2.3254170422535214
H -3.5237954929577464 0.7301007042253529 2.484817042253521
C -0.6776454929577462 1.8010507042253527 0.08546704225352131
H -1.9759254929577463 1.2426607042253535 -1.5115229577464788
C -0.4680254929577463 1.8513207042253539 1.4698070422535212
H -1.3950654929577464 1.5446707042253527 3.404047042253521
H 0.1461845070422536 1.9972507042253538 -0.6030529577464789
C -1.8679654929577463 -2.0866092957746467 -0.08765295774647863
C -0.6628654929577462 -1.814079295774647 0.5787970422535212
C -1.8438954929577462 -2.213429295774647 -1.4808029577464787
C 0.5129345070422537 -1.5763292957746469 -0.13022295774647863
H -0.6401854929577462 -1.7032692957746463 1.6609470422535213
C -0.6547954929577462 -1.9962392957746466 -2.1933129577464787
H -2.7578654929577464 -2.4351492957746466 -2.026182957746479
C 0.5308845070422537 -1.645769295774647 -1.5261029577464789
H 1.4044045070422537 -1.2610992957746463 0.41551704225352126
H -0.6795654929577464 -2.0467992957746466 -3.2793129577464786
C 1.7843245070422535 -1.2521692957746469 -2.2771629577464787
H 1.4981245070422535 -0.9384492957746469 -3.290282957746479
H 2.241984507042254 -0.38631929577464685 -1.8135029577464787
C 0.9385645070422537 2.0647807042253534 1.9815670422535212
H 1.0508945070422537 1.5807407042253532 2.9609770422535213
H 1.6053245070422537 1.5496207042253536 1.3096170422535214
C 3.9676945070422533 -1.6881692957746468 -3.314052957746479
H 4.795084507042254 -2.398849295774647 -3.4044129577464783
H 3.548404507042253 -1.4816192957746468 -4.303802957746479
H 4.307714507042253 -0.7637192957746466 -2.851282957746479
C 2.344694507042253 -3.565079295774647 -3.101282957746479
H 1.6334345070422536 -4.047909295774646 -2.4251929577464786
H 1.8561845070422536 -3.293109295774647 -4.041792957746479
H 3.1808045070422537 -4.243519295774647 -3.298122957746479
C 3.5156645070422536 -2.648489295774647 -1.1110629577464786
H 3.9311845070422535 -1.748249295774647 -0.6771029577464787
H 2.767184507042254 -3.1044092957746465 -0.45972295774647876
H 4.319224507042254 -3.371819295774647 -1.2863129577464787
C 2.963994507042253 3.381090704225353 2.401027042253521
H 3.3337945070422537 4.369820704225353 2.6912870422535216
H 3.120994507042253 2.671350704225353 3.2183370422535216
H 3.4665445070422534 3.0664207042253535 1.4881370422535212
C 1.2973745070422538 4.282440704225354 0.8488370422535213
H 1.7592145070422538 3.7367207042253527 0.02653704225352116
H 0.23311450704225378 4.4484607042253534 0.6605570422535213
H 1.7921845070422535 5.251370704225354 0.9736770422535213
C 0.7724845070422537 4.194670704225353 3.2772470422535216
H -0.2956954929577462 4.278220704225354 3.057857042253521
H 0.9298945070422537 3.612620704225354 4.190337042253521
H 1.2046345070422537 5.193640704225353 3.3918370422535213
N 2.876084507042253 -2.324759295774647 -2.4576629577464786
N 1.4527845070422536 3.504690704225353 2.1388470422535213
C -3.593905492957746 -3.637819295774647 0.8297870422535213
H -2.8952554929577463 -1.8680692957746468 1.7595270422535212
H -5.022615492957747 -1.2402792957746467 1.1579970422535213
H -4.898275492957747 -1.7933092957746464 -0.48931295774647876
H -3.883675492957746 0.07871070422535364 -1.2758929577464788
H -3.8751654929577466 -4.038529295774646 -0.1505529577464788
H -4.4603554929577465 -3.7321892957746465 1.4932570422535212
H -2.7953554929577464 -4.271929295774647 1.2313670422535212
H -5.648775492957746 1.147700704225353 0.9733970422535213
H -6.189795492957747 0.5254307042253537 -0.5943629577464788
H -5.2178854929577465 2.002970704225354 -0.5139729577464787
C 3.6710445070422537 1.0263707042253536 -0.27764295774647874
O 2.7356545070422538 1.6631507042253526 -0.7327029577464788
O 3.650814507042253 0.3883007042253537 0.7790570422535212
O 4.756604507042254 0.8696707042253538 -0.8334829577464786
O -2.988170693014462 8.842357117373231 -2.7888429638243193
H -2.3336594005143674 8.33529175080108 -2.2853878626356354
H -2.6369178211650435 8.846376102451616 -3.6919305631614354
O -8.165961205291751 -1.0788136991267185 5.351907335837988
H -8.20442478993519 -1.6232240824004158 4.551216856226694
H -7.449897336962359 -0.45074746891610973 5.17372964014579
O 14.777781742074719 -6.118010071971648 -1.2946337340099037
H 15.379246868200665 -6.4045704617767125 -1.9982601987972015
H 14.954171275658553 -5.16914997475044 -1.2079550593347648
O -5.8543255906970515 10.40361134790297 -5.465794299180995
H -5.992838732675321 11.11737584776505 -6.106357883172423
H -6.729000274584696 9.99626638404236 -5.376484601591965
O -0.6586576852795192 -5.153846644107155 -9.808797122323687
H -0.6431163830408448 -4.911320068017442 -10.74683053575571
H -1.4006525108773396 -5.773196898171834 -9.739436572469495
O 4.1349832166466065 5.44511767525211 9.738620499825098
H 5.0350878210322225 5.24566859342682 9.440293293853431
H 3.8121856455529164 6.091433146197526 9.09283416951714
O -4.231882431880608 4.070327650040773 -5.879413820766774
H -3.472029950719425 4.395665358354335 -6.385128107021845
H -4.697452275161789 3.492263705235286 -6.50234940414844
O -0.09535849830347964 10.894492440903388 5.197373447852264
H 0.06528508799429644 11.783037467418138 5.549010662801558
H 0.767639048219785 10.458325593956467 5.260267490648102
O 1.7905405917236026 8.08403535105586 3.2802313543881447
H 1.9137509803893438 7.444401253158826 3.9976257911049955
H 2.256646681073139 8.875273214294513 3.589504213767704
O 5.088161451649553 4.187792532292546 -3.789635371115992
H 4.94161812104569 4.882807909099391 -4.448760575578366
H 4.719308349915059 3.3923908608782876 -4.20224355662889
O -1.1631991305676832 -4.42813303677289 -7.26928741040519
H -1.554213346637664 -4.693301257966849 -8.115314037763936
H -0.2303742011407769 -4.273163102363 -7.480909514091645
O 2.7866812143369657 -0.3913815255225983 2.4862471986260446
H 3.0330538806489766 0.39402543562719694 1.9749705889794114
H 3.1224610608887153 -0.20618638930366928 3.3761441592178514
O -4.271105059100515 -10.099416524772248 -1.7158783270447113
H -5.073641855769598 -9.583440228229707 -1.885202006128213
H -4.558788504570042 -11.019293319115295 -1.816012550624583
O 6.688519161161806 -2.064653053428415 3.23485527502899
H 5.942345635413991 -2.559353240897012 2.86409369275325
H 6.367451187419253 -1.15122703058501 3.2739730629180066
O 4.332188854212329 -5.166147740367522 1.4505158845010764
H 5.00075021772591 -5.385366535531577 2.1168012437606665
H 4.184186930368551 -6.002208201242475 0.9835466343356063
O 8.787775885881793 -4.770821089041267 -4.902951635996432
H 9.503678983961384 -5.379917964605641 -4.6674710481813
H 8.927856544908845 -4.598465887964917 -5.846155239641201
O 2.5709373637962143 -12.201850452071142 6.343624729274921
H 2.146653863111906 -12.893820437197473 6.872896311386916
H 3.1075073187777082 -11.712422102990073 6.985118703390762
O -2.4604825226444227 -0.888036155508646 7.193861366408914
H -1.5030929639842836 -0.858051025784277 7.340399695401563
H -2.5514108426534827 -1.3107881023755996 6.326696574491871
O 0.2938773797297012 -1.0587720498610014 7.1514243898600975
H 0.4462342934021959 -0.10714431776130584 7.050630604064629
H 0.5164568356280042 -1.2346007691893663 8.077979618419821
O 4.055350901920173 1.8665765224643829 -8.539630415947538
H 4.731303873934406 1.172583112326754 -8.51894024410992
H 4.49030385850047 2.603475098390027 -8.994337309078505
O 1.4334724905900957 -11.88801080124857 -7.125505652139201
H 1.9478611555714602 -12.708153929830388 -7.083829437355273
H 1.8524534694708432 -11.31516242654952 -6.465762047971045
O -6.169478958898464 6.997017461083667 -7.3146834467628485
H -6.568981480944105 6.151610367926655 -7.060415991867449
H -5.223470836981087 6.79813194024975 -7.381579838062965
O 10.253165837749023 -0.8097599392442499 1.1785217340734264
H 9.732048679288463 -0.9472940279810871 1.9838096568025088
H 9.731059102114768 -1.2409364607064828 0.4853743412015561
O 2.32746679071249 1.4876064344351843 12.144840595947022
H 2.8633782654788322 1.8580360145515622 12.86216072970082
H 2.902635769285223 0.8183361288297912 11.744565879755177
C -2.562211866643361 4.113349239870892 6.955776233498636
O -2.734533680744765 4.412362655068547 8.101950054180577
O -2.3898900525419573 3.814335824673239 5.809602412816695