146

C -5.3564454929577465 1.0091607042253532 -0.0734429577464788
C -4.079135492957747 0.16955070422535368 -0.19788295774647868
C -4.333545492957747 -1.2789292957746463 0.3017270422535212
C -3.1403854929577464 -2.1745492957746464 0.7330270422535212
C -2.905235492957746 0.902300704225353 0.41966704225352136
C -2.7423854929577463 1.056130704225354 1.8024770422535212
C -1.8861754929577463 1.3499307042253532 -0.4326129577464788
C -1.5304554929577463 1.5279207042253526 2.3254170422535214
H -3.5237954929577464 0.7301007042253529 2.484817042253521
C -0.6776454929577462 1.8010507042253527 0.08546704225352131
H -1.9759254929577463 1.2426607042253535 -1.5115229577464788
C -0.4680254929577463 1.8513207042253539 1.4698070422535212
H -1.3950654929577464 1.5446707042253527 3.404047042253521
H 0.1461845070422536 1.9972507042253538 -0.6030529577464789
C -1.8679654929577463 -2.0866092957746467 -0.08765295774647863
C -0.6628654929577462 -1.814079295774647 0.5787970422535212
C -1.8438954929577462 -2.213429295774647 -1.4808029577464787
C 0.5129345070422537 -1.5763292957746469 -0.13022295774647863
H -0.6401854929577462 -1.7032692957746463 1.6609470422535213
C -0.6547954929577462 -1.9962392957746466 -2.1933129577464787
H -2.7578654929577464 -2.4351492957746466 -2.026182957746479
C 0.5308845070422537 -1.645769295774647 -1.5261029577464789
H 1.4044045070422537 -1.2610992957746463 0.41551704225352126
H -0.6795654929577464 -2.0467992957746466 -3.2793129577464786
C 1.7843245070422535 -1.2521692957746469 -2.2771629577464787
H 1.4981245070422535 -0.9384492957746469 -3.290282957746479
H 2.241984507042254 -0.38631929577464685 -1.8135029577464787
C 0.9385645070422537 2.0647807042253534 1.9815670422535212
H 1.0508945070422537 1.5807407042253532 2.9609770422535213
H 1.6053245070422537 1.5496207042253536 1.3096170422535214
C 3.9676945070422533 -1.6881692957746468 -3.314052957746479
H 4.795084507042254 -2.398849295774647 -3.4044129577464783
H 3.548404507042253 -1.4816192957746468 -4.303802957746479
H 4.307714507042253 -0.7637192957746466 -2.851282957746479
C 2.344694507042253 -3.565079295774647 -3.101282957746479
H 1.6334345070422536 -4.047909295774646 -2.4251929577464786
H 1.8561845070422536 -3.293109295774647 -4.041792957746479
H 3.1808045070422537 -4.243519295774647 -3.298122957746479
C 3.5156645070422536 -2.648489295774647 -1.1110629577464786
H 3.9311845070422535 -1.748249295774647 -0.6771029577464787
H 2.767184507042254 -3.1044092957746465 -0.45972295774647876
H 4.319224507042254 -3.371819295774647 -1.2863129577464787
C 2.963994507042253 3.381090704225353 2.401027042253521
H 3.3337945070422537 4.369820704225353 2.6912870422535216
H 3.120994507042253 2.671350704225353 3.2183370422535216
H 3.4665445070422534 3.0664207042253535 1.4881370422535212
C 1.2973745070422538 4.282440704225354 0.8488370422535213
H 1.7592145070422538 3.7367207042253527 0.02653704225352116
H 0.23311450704225378 4.4484607042253534 0.6605570422535213
H 1.7921845070422535 5.251370704225354 0.9736770422535213
C 0.7724845070422537 4.194670704225353 3.2772470422535216
H -0.2956954929577462 4.278220704225354 3.057857042253521
H 0.9298945070422537 3.612620704225354 4.190337042253521
H 1.2046345070422537 5.193640704225353 3.3918370422535213
N 2.876084507042253 -2.324759295774647 -2.4576629577464786
N 1.4527845070422536 3.504690704225353 2.1388470422535213
C -3.593905492957746 -3.637819295774647 0.8297870422535213
H -2.8952554929577463 -1.8680692957746468 1.7595270422535212
H -5.022615492957747 -1.2402792957746467 1.1579970422535213
H -4.898275492957747 -1.7933092957746464 -0.48931295774647876
H -3.883675492957746 0.07871070422535364 -1.2758929577464788
H -3.8751654929577466 -4.038529295774646 -0.1505529577464788
H -4.4603554929577465 -3.7321892957746465 1.4932570422535212
H -2.7953554929577464 -4.271929295774647 1.2313670422535212
H -5.648775492957746 1.147700704225353 0.9733970422535213
H -6.189795492957747 0.5254307042253537 -0.5943629577464788
H -5.2178854929577465 2.002970704225354 -0.5139729577464787
C 3.6710445070422537 1.0263707042253536 -0.27764295774647874
O 2.7356545070422538 1.6631507042253526 -0.7327029577464788
O 3.650814507042253 0.3883007042253537 0.7790570422535212
O 4.756604507042254 0.8696707042253538 -0.8334829577464786
O 0.9733737724848135 -4.739093698644544 -8.890215091975051
H 0.23230815808240468 -4.405634705324099 -9.418035337725529
H 0.889318629758229 -4.2703019549304 -8.046336559064855
O 1.1988964071286512 9.363391100438115 -2.266325936759258
H 1.7802354256609645 8.742693967138708 -1.8018398001030778
H 0.30691023435256026 9.086828565792786 -2.0077997750138525
O -5.482229190415345 4.417999503848041 5.043659886538268
H -5.924341817401076 5.032338190648803 4.4386047156160675
H -5.08280069861976 4.994659179246931 5.7121525514275335
O -9.925253763446316 9.837130080288713 -1.4648942495960702
H -10.082682955913377 10.53708726396734 -2.1162339054407404
H -9.94727099877798 9.021602480920944 -1.987763181851367
O -6.406065605938549 6.331916709036796 6.287836020042214
H -6.905582679971349 6.848353800031163 5.637649292482363
H -6.100188628793468 5.559892394942123 5.788456727721002
O 5.300584740123165 4.399653783735414 0.4802366207788708
H 5.371709027114919 4.811079802670921 1.3546720521531928
H 4.345701263550728 4.319433477928035 0.33627762312639486
O -7.2493676557563695 8.340480409001026 -0.32465169157370166
H -7.421456049096893 8.158223164573585 0.6113692689988673
H -6.590925001913975 7.675254960071987 -0.575431112575788
O -4.098722025540299 2.8403743843502616 8.290672979441682
H -4.297159979007221 2.805221910039442 7.3428575759618235
H -3.183509769900482 2.5275893095485005 8.349951714312928
O 4.633684664421021 3.0724751786197655 -5.575982782353582
H 4.959314010159197 2.8583509845721773 -6.463160169135729
H 5.369222499361042 2.8327056861290254 -4.992496168846058
O 1.2316659718417204 10.44367163698892 1.2681531417020682
H 0.6164018239651097 10.335773579394596 0.5273593820057259
H 2.0493087424335346 10.753038322798048 0.8501645082317086
O -6.193545164923011 -4.226840612783068 6.202057407097465
H -5.292278039558413 -3.923317421208606 6.016157977799018
H -6.756519921491674 -3.5669734894660596 5.770088950689138
O 1.5790152732022973 -0.24815924615966312 4.891640893750498
H 0.731397582050743 0.13097986916262672 4.6145756707802725
H 1.4482086806057117 -0.45337532591017404 5.829584356996072
O -7.418739516487876 -11.757992198686273 -2.3277744273867076
H -7.448844524889406 -11.743791381882332 -1.3593430244617275
H -8.014574763955013 -11.040602512005945 -2.5910126077870363
O -6.355317879753625 -3.1508343068765687 -6.46625067446107
H -7.197649279202162 -3.610646910816122 -6.600480103653763
H -5.708704666018462 -3.8673430958580255 -6.379830471757021
O 10.148936853377148 -0.9072848773055118 -5.561465894242238
H 11.058173239459416 -1.2224496932164932 -5.4477658945243075
H 9.86796708953443 -1.3011292190564157 -6.401051846111946
O 5.897526445984944 5.398277881430265 2.8483387797328548
H 5.9046626788044785 5.270780480041077 3.808891143594477
H 6.815974378430127 5.238213003094985 2.584152151739161
O -2.1840715839399576 6.71954574356329 5.324776253703603
H -3.034848080856267 6.798537859997486 5.781839657112869
H -2.299009779064557 7.251062748651884 4.522753293369454
O -1.505433970686979 -0.7104508558592049 -4.3694562768534055
H -1.0633992125990612 -1.1050522599565074 -5.1361781047848885
H -1.9407981339613067 0.07669670960201347 -4.729759898573922
O -2.5516890156834577 10.411822623448145 2.976605973387641
H -2.434428034746487 9.647848578082389 3.561038071459934
H -3.2487066953260912 10.930212182462284 3.4060248407778895
O 4.694311226250237 -2.372522853428144 3.505707026312105
H 4.581934634962983 -1.5473605650651154 4.001132153343575
H 5.261881929117505 -2.912497663371368 4.07601628116734
O 8.544958396610502 3.2874037863628054 -1.7983123577821765
H 8.814240075444538 3.429654856194348 -2.718214182694
H 7.758912104292639 2.7251546487074734 -1.8688040440946514
O 11.460935510826683 6.243901443899376 -5.53453013972284
H 11.453290684357473 6.225608384408643 -6.503330571959905
H 10.752246516069114 5.632673166620114 -5.283289525840985
O -9.527454551851132 -8.77819212547918 2.5785682903118907
H -9.52859973520274 -7.855600332678886 2.8748627879196436
H -10.300050882972041 -9.165674866989221 3.0166481671270367
O 11.57618688105552 -0.5751459799570027 0.3878331490287006
H 10.838043660991772 -1.2025598295687026 0.36629701916858926
H 11.14972151730407 0.2909411469169907 0.3042728325890467
C -0.3769295706879242 8.384382296674605 3.325692363397165
O -1.2090329153889765 8.540087269143793 2.4794192144755582
O 0.4551737740131281 8.228677324205416 4.171965512318771