146

C -5.3564454929577465 1.0091607042253532 -0.0734429577464788
C -4.079135492957747 0.16955070422535368 -0.19788295774647868
C -4.333545492957747 -1.2789292957746463 0.3017270422535212
C -3.1403854929577464 -2.1745492957746464 0.7330270422535212
C -2.905235492957746 0.902300704225353 0.41966704225352136
C -2.7423854929577463 1.056130704225354 1.8024770422535212
C -1.8861754929577463 1.3499307042253532 -0.4326129577464788
C -1.5304554929577463 1.5279207042253526 2.3254170422535214
H -3.5237954929577464 0.7301007042253529 2.484817042253521
C -0.6776454929577462 1.8010507042253527 0.08546704225352131
H -1.9759254929577463 1.2426607042253535 -1.5115229577464788
C -0.4680254929577463 1.8513207042253539 1.4698070422535212
H -1.3950654929577464 1.5446707042253527 3.404047042253521
H 0.1461845070422536 1.9972507042253538 -0.6030529577464789
C -1.8679654929577463 -2.0866092957746467 -0.08765295774647863
C -0.6628654929577462 -1.814079295774647 0.5787970422535212
C -1.8438954929577462 -2.213429295774647 -1.4808029577464787
C 0.5129345070422537 -1.5763292957746469 -0.13022295774647863
H -0.6401854929577462 -1.7032692957746463 1.6609470422535213
C -0.6547954929577462 -1.9962392957746466 -2.1933129577464787
H -2.7578654929577464 -2.4351492957746466 -2.026182957746479
C 0.5308845070422537 -1.645769295774647 -1.5261029577464789
H 1.4044045070422537 -1.2610992957746463 0.41551704225352126
H -0.6795654929577464 -2.0467992957746466 -3.2793129577464786
C 1.7843245070422535 -1.2521692957746469 -2.2771629577464787
H 1.4981245070422535 -0.9384492957746469 -3.290282957746479
H 2.241984507042254 -0.38631929577464685 -1.8135029577464787
C 0.9385645070422537 2.0647807042253534 1.9815670422535212
H 1.0508945070422537 1.5807407042253532 2.9609770422535213
H 1.6053245070422537 1.5496207042253536 1.3096170422535214
C 3.9676945070422533 -1.6881692957746468 -3.314052957746479
H 4.795084507042254 -2.398849295774647 -3.4044129577464783
H 3.548404507042253 -1.4816192957746468 -4.303802957746479
H 4.307714507042253 -0.7637192957746466 -2.851282957746479
C 2.344694507042253 -3.565079295774647 -3.101282957746479
H 1.6334345070422536 -4.047909295774646 -2.4251929577464786
H 1.8561845070422536 -3.293109295774647 -4.041792957746479
H 3.1808045070422537 -4.243519295774647 -3.298122957746479
C 3.5156645070422536 -2.648489295774647 -1.1110629577464786
H 3.9311845070422535 -1.748249295774647 -0.6771029577464787
H 2.767184507042254 -3.1044092957746465 -0.45972295774647876
H 4.319224507042254 -3.371819295774647 -1.2863129577464787
C 2.963994507042253 3.381090704225353 2.401027042253521
H 3.3337945070422537 4.369820704225353 2.6912870422535216
H 3.120994507042253 2.671350704225353 3.2183370422535216
H 3.4665445070422534 3.0664207042253535 1.4881370422535212
C 1.2973745070422538 4.282440704225354 0.8488370422535213
H 1.7592145070422538 3.7367207042253527 0.02653704225352116
H 0.23311450704225378 4.4484607042253534 0.6605570422535213
H 1.7921845070422535 5.251370704225354 0.9736770422535213
C 0.7724845070422537 4.194670704225353 3.2772470422535216
H -0.2956954929577462 4.278220704225354 3.057857042253521
H 0.9298945070422537 3.612620704225354 4.190337042253521
H 1.2046345070422537 5.193640704225353 3.3918370422535213
N 2.876084507042253 -2.324759295774647 -2.4576629577464786
N 1.4527845070422536 3.504690704225353 2.1388470422535213
C -3.593905492957746 -3.637819295774647 0.8297870422535213
H -2.8952554929577463 -1.8680692957746468 1.7595270422535212
H -5.022615492957747 -1.2402792957746467 1.1579970422535213
H -4.898275492957747 -1.7933092957746464 -0.48931295774647876
H -3.883675492957746 0.07871070422535364 -1.2758929577464788
H -3.8751654929577466 -4.038529295774646 -0.1505529577464788
H -4.4603554929577465 -3.7321892957746465 1.4932570422535212
H -2.7953554929577464 -4.271929295774647 1.2313670422535212
H -5.648775492957746 1.147700704225353 0.9733970422535213
H -6.189795492957747 0.5254307042253537 -0.5943629577464788
H -5.2178854929577465 2.002970704225354 -0.5139729577464787
C 3.6710445070422537 1.0263707042253536 -0.27764295774647874
O 2.7356545070422538 1.6631507042253526 -0.7327029577464788
O 3.650814507042253 0.3883007042253537 0.7790570422535212
O 4.756604507042254 0.8696707042253538 -0.8334829577464786
O 8.823417530678032 -1.0037855632588788 1.2540129697728406
H 8.609934167083383 -0.27021259358629024 1.8500523212707545
H 9.324373130363686 -0.5852921954707595 0.5378644289232875
O 0.3237648305302141 -4.035466830952171 8.328056252269786
H -0.18535317345433633 -4.370534997353784 9.081379249916248
H -0.3503160489444803 -3.8289391756344515 7.663283178344867
O -12.78527034651093 -3.3615967174931582 1.3832614109072683
H -12.760103397755014 -4.0932875295304765 2.018054713621222
H -12.973813759849747 -3.7929232679126743 0.5362840012381858
O 7.002174719057142 -1.0369074708345563 4.776759052362286
H 6.558250550214601 -0.34355422880383557 5.287797183016888
H 6.27872065480827 -1.487198335085289 4.315441050552131
O -0.3016870953466917 1.0379211643050377 -6.4172897335992625
H 0.021936687523371745 1.1283138008274067 -7.326170460275434
H -0.8088056187836894 1.8499392130738885 -6.267558521219522
O -3.1672521213611655 10.224535362165955 -9.83212830843348
H -2.542386114248953 10.122056946733569 -10.565618597684885
H -2.7286519992436338 9.78548955205819 -9.087930314748128
O 2.432345682127385 13.438282133604785 -2.0008321275780334
H 2.94167210520249 14.13220681925651 -2.4458292986933947
H 3.0756868835436806 13.017591026631383 -1.410838029833208
O 7.911120963481075 0.6689656694113425 -5.135147249922761
H 7.674982420492215 1.31392492348957 -5.818692058983553
H 8.630442895923572 1.097552802212611 -4.647447576553607
O -4.882630269464974 2.6822087910028367 -11.884041301981181
H -4.260447362257763 2.7722904052991835 -12.621429320357498
H -5.241653282364616 3.5750320421738166 -11.770326471475475
O 3.8129677933518455 3.4920187389569226 -7.269939887853987
H 3.83088553510529 3.4391424620132938 -8.237333505140684
H 4.743659543207752 3.6036594569628613 -7.02435657992515
O 0.15010100890645062 -7.543991861223333 -4.693050092956689
H -0.7938855173682141 -7.762736560482603 -4.690302064961173
H 0.2520409999465602 -6.9376633345856416 -3.9440935519530678
O 1.1053720579839474 -2.076053907929011 -9.42122084882804
H 0.5744988079556119 -1.4844205502890904 -9.975396740970659
H 1.0787859718277284 -1.6627083306344863 -8.545206831786103
O 5.572084238806824 3.5587763160185832 10.713838825221291
H 5.466481615402967 3.626015583757023 11.674720880264585
H 6.531617237604302 3.513856509981767 10.586400292805337
O -5.387881706871482 1.092345692823088 6.495401588966379
H -6.00754110346891 0.7635565483209725 5.826905300595172
H -4.556575940366472 0.6404734808188197 6.2863461635551126
O -8.715084797630388 0.894508368034051 -1.6568653808962182
H -9.648621847796775 0.7345095643426449 -1.452228346897089
H -8.413413364673286 0.058398269980865614 -2.042710161567281
O -9.4178528670292 -3.0518079388264656 -1.8257768720428147
H -9.427400402173514 -3.0019828903190957 -2.7934512315325697
H -9.35853435967654 -2.126478058376686 -1.5443379420202465
O -3.76555010027874 2.7869472150001915 -6.975483342744782
H -3.971180778111383 1.9711061665881822 -6.494768494877481
H -4.461000596655243 3.402760928794192 -6.6996500211664864
O 3.2787096590924643 -11.864576985958825 4.2680878463224365
H 3.2156494404486136 -12.83147138125251 4.278383188679522
H 2.6250146059064168 -11.594427164232394 3.6057708560819126
O 1.6155260110868843 -5.891645802563331 -6.471167723277934
H 1.6115459719197238 -5.582955101476582 -5.552657207687176
H 2.5511897455968056 -5.8678753446541325 -6.7220268182969
O 3.013769701428235 -4.068842967358757 -9.992120217035776
H 2.8921968836647727 -4.194882679537856 -10.945168693155887
H 2.65348163749691 -4.878917696352483 -9.601053229507608
O 1.6473892313617027 10.337978619544911 1.8278447217324862
H 2.139282510302503 10.15856529952831 2.6432091921587437
H 1.697973896891732 9.50472492997493 1.3358168518600255
O 13.042980724059598 3.8830025619427992 -1.4765529968800202
H 13.778808480403823 3.686394540504815 -2.0756107201418645
H 13.235020725064594 3.353278592834866 -0.6882160772406207
O 5.1774725594940865 9.254610167563532 -1.5801879047614795
H 5.606775881413732 9.697111036978189 -2.3277566275261705
H 4.281058125724517 9.072017589939046 -1.8996609988179713
O -2.1846781969849562 -4.89699769973666 -14.007700306044363
H -2.6235047646030223 -4.32997773849622 -14.659533846150609
H -1.7926479707361844 -5.60548498842528 -14.539978436136131
C -7.620813687189368 8.799723028445754 2.969380709815522
O -7.898606802081859 9.02066761975244 1.826212861163956
O -7.343020572296876 8.57877843713907 4.112548558467088