146

C -5.3564454929577465 1.0091607042253532 -0.0734429577464788
C -4.079135492957747 0.16955070422535368 -0.19788295774647868
C -4.333545492957747 -1.2789292957746463 0.3017270422535212
C -3.1403854929577464 -2.1745492957746464 0.7330270422535212
C -2.905235492957746 0.902300704225353 0.41966704225352136
C -2.7423854929577463 1.056130704225354 1.8024770422535212
C -1.8861754929577463 1.3499307042253532 -0.4326129577464788
C -1.5304554929577463 1.5279207042253526 2.3254170422535214
H -3.5237954929577464 0.7301007042253529 2.484817042253521
C -0.6776454929577462 1.8010507042253527 0.08546704225352131
H -1.9759254929577463 1.2426607042253535 -1.5115229577464788
C -0.4680254929577463 1.8513207042253539 1.4698070422535212
H -1.3950654929577464 1.5446707042253527 3.404047042253521
H 0.1461845070422536 1.9972507042253538 -0.6030529577464789
C -1.8679654929577463 -2.0866092957746467 -0.08765295774647863
C -0.6628654929577462 -1.814079295774647 0.5787970422535212
C -1.8438954929577462 -2.213429295774647 -1.4808029577464787
C 0.5129345070422537 -1.5763292957746469 -0.13022295774647863
H -0.6401854929577462 -1.7032692957746463 1.6609470422535213
C -0.6547954929577462 -1.9962392957746466 -2.1933129577464787
H -2.7578654929577464 -2.4351492957746466 -2.026182957746479
C 0.5308845070422537 -1.645769295774647 -1.5261029577464789
H 1.4044045070422537 -1.2610992957746463 0.41551704225352126
H -0.6795654929577464 -2.0467992957746466 -3.2793129577464786
C 1.7843245070422535 -1.2521692957746469 -2.2771629577464787
H 1.4981245070422535 -0.9384492957746469 -3.290282957746479
H 2.241984507042254 -0.38631929577464685 -1.8135029577464787
C 0.9385645070422537 2.0647807042253534 1.9815670422535212
H 1.0508945070422537 1.5807407042253532 2.9609770422535213
H 1.6053245070422537 1.5496207042253536 1.3096170422535214
C 3.9676945070422533 -1.6881692957746468 -3.314052957746479
H 4.795084507042254 -2.398849295774647 -3.4044129577464783
H 3.548404507042253 -1.4816192957746468 -4.303802957746479
H 4.307714507042253 -0.7637192957746466 -2.851282957746479
C 2.344694507042253 -3.565079295774647 -3.101282957746479
H 1.6334345070422536 -4.047909295774646 -2.4251929577464786
H 1.8561845070422536 -3.293109295774647 -4.041792957746479
H 3.1808045070422537 -4.243519295774647 -3.298122957746479
C 3.5156645070422536 -2.648489295774647 -1.1110629577464786
H 3.9311845070422535 -1.748249295774647 -0.6771029577464787
H 2.767184507042254 -3.1044092957746465 -0.45972295774647876
H 4.319224507042254 -3.371819295774647 -1.2863129577464787
C 2.963994507042253 3.381090704225353 2.401027042253521
H 3.3337945070422537 4.369820704225353 2.6912870422535216
H 3.120994507042253 2.671350704225353 3.2183370422535216
H 3.4665445070422534 3.0664207042253535 1.4881370422535212
C 1.2973745070422538 4.282440704225354 0.8488370422535213
H 1.7592145070422538 3.7367207042253527 0.02653704225352116
H 0.23311450704225378 4.4484607042253534 0.6605570422535213
H 1.7921845070422535 5.251370704225354 0.9736770422535213
C 0.7724845070422537 4.194670704225353 3.2772470422535216
H -0.2956954929577462 4.278220704225354 3.057857042253521
H 0.9298945070422537 3.612620704225354 4.190337042253521
H 1.2046345070422537 5.193640704225353 3.3918370422535213
N 2.876084507042253 -2.324759295774647 -2.4576629577464786
N 1.4527845070422536 3.504690704225353 2.1388470422535213
C -3.593905492957746 -3.637819295774647 0.8297870422535213
H -2.8952554929577463 -1.8680692957746468 1.7595270422535212
H -5.022615492957747 -1.2402792957746467 1.1579970422535213
H -4.898275492957747 -1.7933092957746464 -0.48931295774647876
H -3.883675492957746 0.07871070422535364 -1.2758929577464788
H -3.8751654929577466 -4.038529295774646 -0.1505529577464788
H -4.4603554929577465 -3.7321892957746465 1.4932570422535212
H -2.7953554929577464 -4.271929295774647 1.2313670422535212
H -5.648775492957746 1.147700704225353 0.9733970422535213
H -6.189795492957747 0.5254307042253537 -0.5943629577464788
H -5.2178854929577465 2.002970704225354 -0.5139729577464787
C 3.6710445070422537 1.0263707042253536 -0.27764295774647874
O 2.7356545070422538 1.6631507042253526 -0.7327029577464788
O 3.650814507042253 0.3883007042253537 0.7790570422535212
O 4.756604507042254 0.8696707042253538 -0.8334829577464786
O -1.6014291759340757 -9.464820693441016 6.799474240909167
H -1.6672616936403797 -9.486067809066231 7.766005149152695
H -0.7505190664173851 -9.889444458929173 6.613440406338815
O -4.230501434756352 3.9282450121450827 -7.778535315848537
H -3.339986235453101 4.02479138446536 -8.148168694619567
H -4.083126494361196 3.500576280685253 -6.92159772922098
O -8.857083440852794 1.2570361962835095 -2.1124156405489574
H -8.391112375528724 0.5975000169591351 -1.5768315189182283
H -8.357046012817062 1.2804467002794948 -2.942100196971495
O -6.898464518415766 5.070858279914319 -1.2886341867652347
H -6.851052225792737 4.586929890804163 -0.4504619218808139
H -6.6541196555130835 5.977555195828609 -1.0495563020820586
O -6.5663416988528915 -1.5878949661019255 2.7733792446745715
H -6.593816643053304 -0.6192819467415001 2.772237725219652
H -5.640561966147821 -1.7960187834916979 2.576965631481301
O 7.389457198600197 -8.778393550846886 -10.949764111975176
H 7.527177512168793 -8.62887745739928 -11.897205619367973
H 6.66239674428686 -8.179821806423044 -10.72160428454913
O -0.28657819107666616 -3.769041225027214 10.85612207050636
H -0.4997725901602078 -4.327076503995406 10.09315933712661
H -0.9171054394159366 -3.035924862076474 10.793370721711392
O -7.666785352880122 7.7925399261180255 -3.8366893149701644
H -7.607182076485123 8.735308874162138 -3.620815469989396
H -8.592976021983514 7.569855635359694 -3.659081614080616
O -0.13475816447417044 1.2216134259094737 -5.169379808292611
H 0.20424782875692826 0.32923322562307467 -5.002947024291971
H -1.086242555477406 1.090407488552807 -5.297537523548307
O 4.554236527312789 -9.582103174692836 -3.3677078500566764
H 4.870751392019092 -10.258772704408951 -2.750533608149479
H 5.362990596243954 -9.136252933061135 -3.6611296664307145
O 1.5981301872601872 -11.603131245980023 4.428393046287905
H 1.5328278025474589 -12.00614220485652 5.307190589796238
H 2.294937287219202 -10.937102261144535 4.5275252867836935
O 2.049546894798147 9.238637821965803 -10.19407627869754
H 1.1589081223417632 9.207753927452748 -9.81358170717635
H 2.5596836851719766 9.757261268891455 -9.55395744620935
O 2.1445580302669613 8.085705116095749 10.2604904055651
H 1.6433449667889812 8.674368084895878 10.844638273028842
H 2.4915957187693967 8.676144044517471 9.574991566132756
O -11.43047117543896 -0.965257893860838 -1.3829954747582354
H -11.069498773616049 -1.2777248075205985 -0.5397691054539172
H -11.264262053092606 -1.6981628251585432 -1.994703602567863
O 5.791047084459132 4.219032821235278 -9.200970394606403
H 5.433897324047595 4.500934598793526 -10.056506947506092
H 6.333516850123077 4.969343253864658 -8.915098478657985
O -4.391064880592777 -3.7593791085630124 9.773400094232652
H -4.288130221745696 -4.240851508841084 10.607999483567744
H -3.76381107249064 -3.0245851885040205 9.848183110791933
O -3.4440694263635083 -11.686722971730518 -3.799097485028158
H -3.7312316636305494 -11.38330655208602 -2.9247727840858238
H -2.595881067837272 -12.123105778215972 -3.6284853548484732
O 6.015570915809058 7.823508181440354 -7.769599657707106
H 6.038075405635189 7.881226107704581 -6.802578693184917
H 5.181035186410169 8.253098726077152 -8.010356847870396
O -0.4921840035189622 -7.80906730279977 -7.178270798338977
H -0.2500034334309429 -7.646269476155373 -6.254250887291761
H -0.019289952642408292 -7.120234416631952 -7.669027780845874
O -8.968398690274867 -6.118589785466657 -0.9615356420819386
H -9.300792125381228 -6.0804983124146315 -0.05212319391613482
H -9.38314516293342 -5.357296390464994 -1.3944093816921534
O 7.397654235517267 4.623727744152648 7.464341085856811
H 7.9364901606315295 5.422125936653497 7.570093291118136
H 6.500908919479485 4.963346803115554 7.3248108839167045
O -4.355457198269684 -11.743879613002342 4.074806025993763
H -5.128141181620572 -12.302472983313901 4.247722958122965
H -4.164520153512596 -11.336327173593553 4.932947039097888
O 8.723569149851734 0.3231232196630667 2.3556325190120417
H 8.597394482485834 0.4163049933668459 3.3118565865111416
H 9.362591725792708 1.0173733746391553 2.1351131002448085
O 6.604959058783138 3.673843436402995 3.5112329892902787
H 6.375933925369953 3.1880542756472705 2.704682472299978
H 5.746718740596314 3.8935373128119926 3.903814319981088
C -7.706731973465958 -4.053401711752761 -4.605172406108914
O -8.872348656875051 -3.7813707692489746 -4.617629170491637
O -6.541115290056865 -4.325432654256546 -4.5927156417261905