146

C -5.3564454929577465 1.0091607042253532 -0.0734429577464788
C -4.079135492957747 0.16955070422535368 -0.19788295774647868
C -4.333545492957747 -1.2789292957746463 0.3017270422535212
C -3.1403854929577464 -2.1745492957746464 0.7330270422535212
C -2.905235492957746 0.902300704225353 0.41966704225352136
C -2.7423854929577463 1.056130704225354 1.8024770422535212
C -1.8861754929577463 1.3499307042253532 -0.4326129577464788
C -1.5304554929577463 1.5279207042253526 2.3254170422535214
H -3.5237954929577464 0.7301007042253529 2.484817042253521
C -0.6776454929577462 1.8010507042253527 0.08546704225352131
H -1.9759254929577463 1.2426607042253535 -1.5115229577464788
C -0.4680254929577463 1.8513207042253539 1.4698070422535212
H -1.3950654929577464 1.5446707042253527 3.404047042253521
H 0.1461845070422536 1.9972507042253538 -0.6030529577464789
C -1.8679654929577463 -2.0866092957746467 -0.08765295774647863
C -0.6628654929577462 -1.814079295774647 0.5787970422535212
C -1.8438954929577462 -2.213429295774647 -1.4808029577464787
C 0.5129345070422537 -1.5763292957746469 -0.13022295774647863
H -0.6401854929577462 -1.7032692957746463 1.6609470422535213
C -0.6547954929577462 -1.9962392957746466 -2.1933129577464787
H -2.7578654929577464 -2.4351492957746466 -2.026182957746479
C 0.5308845070422537 -1.645769295774647 -1.5261029577464789
H 1.4044045070422537 -1.2610992957746463 0.41551704225352126
H -0.6795654929577464 -2.0467992957746466 -3.2793129577464786
C 1.7843245070422535 -1.2521692957746469 -2.2771629577464787
H 1.4981245070422535 -0.9384492957746469 -3.290282957746479
H 2.241984507042254 -0.38631929577464685 -1.8135029577464787
C 0.9385645070422537 2.0647807042253534 1.9815670422535212
H 1.0508945070422537 1.5807407042253532 2.9609770422535213
H 1.6053245070422537 1.5496207042253536 1.3096170422535214
C 3.9676945070422533 -1.6881692957746468 -3.314052957746479
H 4.795084507042254 -2.398849295774647 -3.4044129577464783
H 3.548404507042253 -1.4816192957746468 -4.303802957746479
H 4.307714507042253 -0.7637192957746466 -2.851282957746479
C 2.344694507042253 -3.565079295774647 -3.101282957746479
H 1.6334345070422536 -4.047909295774646 -2.4251929577464786
H 1.8561845070422536 -3.293109295774647 -4.041792957746479
H 3.1808045070422537 -4.243519295774647 -3.298122957746479
C 3.5156645070422536 -2.648489295774647 -1.1110629577464786
H 3.9311845070422535 -1.748249295774647 -0.6771029577464787
H 2.767184507042254 -3.1044092957746465 -0.45972295774647876
H 4.319224507042254 -3.371819295774647 -1.2863129577464787
C 2.963994507042253 3.381090704225353 2.401027042253521
H 3.3337945070422537 4.369820704225353 2.6912870422535216
H 3.120994507042253 2.671350704225353 3.2183370422535216
H 3.4665445070422534 3.0664207042253535 1.4881370422535212
C 1.2973745070422538 4.282440704225354 0.8488370422535213
H 1.7592145070422538 3.7367207042253527 0.02653704225352116
H 0.23311450704225378 4.4484607042253534 0.6605570422535213
H 1.7921845070422535 5.251370704225354 0.9736770422535213
C 0.7724845070422537 4.194670704225353 3.2772470422535216
H -0.2956954929577462 4.278220704225354 3.057857042253521
H 0.9298945070422537 3.612620704225354 4.190337042253521
H 1.2046345070422537 5.193640704225353 3.3918370422535213
N 2.876084507042253 -2.324759295774647 -2.4576629577464786
N 1.4527845070422536 3.504690704225353 2.1388470422535213
C -3.593905492957746 -3.637819295774647 0.8297870422535213
H -2.8952554929577463 -1.8680692957746468 1.7595270422535212
H -5.022615492957747 -1.2402792957746467 1.1579970422535213
H -4.898275492957747 -1.7933092957746464 -0.48931295774647876
H -3.883675492957746 0.07871070422535364 -1.2758929577464788
H -3.8751654929577466 -4.038529295774646 -0.1505529577464788
H -4.4603554929577465 -3.7321892957746465 1.4932570422535212
H -2.7953554929577464 -4.271929295774647 1.2313670422535212
H -5.648775492957746 1.147700704225353 0.9733970422535213
H -6.189795492957747 0.5254307042253537 -0.5943629577464788
H -5.2178854929577465 2.002970704225354 -0.5139729577464787
C 3.6710445070422537 1.0263707042253536 -0.27764295774647874
O 2.7356545070422538 1.6631507042253526 -0.7327029577464788
O 3.650814507042253 0.3883007042253537 0.7790570422535212
O 4.756604507042254 0.8696707042253538 -0.8334829577464786
O 2.1390133016774437 14.214405811810101 -1.2620242684468215
H 1.551212818102286 14.761864042364866 -1.8040089861341935
H 2.139623640325021 13.355901659294972 -1.7113929276799902
O 2.413944231463901 -4.649600346665674 5.172213801206518
H 2.265790030712037 -4.681090625796272 6.129306300403881
H 1.605353965218437 -5.030095088129415 4.797557322079932
O 5.5177953291770345 -7.601470737535346 8.182301249080574
H 5.793850611503818 -8.089568848421944 8.97256770550424
H 6.327441580594947 -7.533888136158177 7.654222198316376
O -2.2090946282471386 5.577143503593184 -2.4668964956103356
H -1.8497412217110072 5.854912122643517 -3.3228620792535972
H -3.0211446675493567 5.101262148353715 -2.6972736075479413
O 2.616184337778069 6.264750269286689 2.968221732776515
H 1.980137189230554 6.559693025813377 2.2993270085507844
H 3.4261189772564826 6.7504591220405805 2.7513007000722816
O 10.020563738437463 0.6144842887866213 -1.6924836405086428
H 10.514346015375017 1.140619318019561 -2.3392667192115573
H 9.094910722357934 0.8481098826577367 -1.8584580964084556
O -7.497954723173501 -3.34623264450014 5.8899606363283095
H -7.108903306932669 -2.477619967696663 5.70797610369627
H -6.911496351822887 -3.7297994637205774 6.559217700666
O -6.5547166758806705 -5.167875050952009 4.524844495634056
H -6.915306820269908 -6.044264135888238 4.3226458891255275
H -6.32377744935142 -5.220881352465045 5.46442916449045
O 9.247619836381894 -6.026266316659289 0.9607333193644074
H 8.73934618376663 -6.465473844139152 1.6591042800738036
H 9.117312413266577 -5.0820101916928255 1.1349811034087527
O -3.721820879892186 -13.617467488591778 3.1387670802258296
H -4.260062301091835 -14.179664531858688 3.7160001474932267
H -2.9975784617098378 -13.320807696567826 3.710105711688546
O 3.4869388350146786 8.972555753096639 -1.4967707451202523
H 4.328855130523338 9.28189973879676 -1.1300956753811988
H 3.2178570572637715 9.683716032454212 -2.0974436996025316
O -2.553507615554022 -2.1961222930113116 -12.908666562125466
H -2.0055862185418984 -2.2470455182979077 -13.70626064731084
H -3.202617734675433 -2.906128714086567 -13.024894267884868
O 3.8377283033084915 0.23980103973498557 -7.4614601804983325
H 4.526017585097602 0.40922656297258236 -8.122156944187923
H 4.3003190997937235 -0.2428992013694734 -6.760052897570036
O 0.5500071877940697 5.3460488610199555 -4.613169678334759
H 0.5899112883374488 5.005785804287591 -3.7067503096742183
H 1.154506904456235 4.77092928302546 -5.105896283931406
O 8.32214177106366 4.9359961663555705 -5.265871884096324
H 9.266839551410197 5.1344132637991535 -5.1813490105626485
H 8.21569863813474 4.0977082533797065 -4.79163019601856
O -3.081938363889624 14.27975197170761 4.2643689859234755
H -3.2386849031839025 14.78671718997586 5.075161281635205
H -2.4796930956552443 13.573488173034633 4.542674623439708
O 5.681204054839313 0.9597589199702055 -6.674086639516123
H 5.643838299987827 0.9402798498513566 -5.7060000095641925
H 6.390057555817054 0.3366002745226988 -6.893544975096312
O 9.975961488714916 -1.3107768054642084 -5.110246746897156
H 10.91366357973017 -1.2566800144721846 -5.348481258691705
H 9.737142248301634 -0.39764566761171344 -4.890886678077347
O 2.886904829997669 -4.573142996814923 2.67032137193287
H 2.839345434946765 -3.612416777248926 2.5532291352951524
H 2.706708986801432 -4.703184641900639 3.6134971630440478
O -12.494796908173104 2.3395319855436236 0.7149160608326954
H -12.825086387068364 3.2298352065052214 0.9078833942767326
H -11.76452529046088 2.4898521422133664 0.09599025012291884
O 1.9063049394944733 8.855381942880447 3.3155404499745016
H 1.7121208925374836 9.061040628922944 2.388737117188802
H 1.630763519530217 9.65132936686852 3.794608888123824
O -5.26035966764738 -0.8085711034968819 6.9396382165077455
H -5.2746438367263675 -0.8562523282798473 7.907362257862985
H -5.57636370230081 -1.6801179591834625 6.657663975262931
O 0.09872054876892733 -1.274864396231835 -7.16365966062947
H 0.6623379491035404 -1.4767733525978262 -6.401730821249277
H -0.6286765243077183 -0.757758996903481 -6.786224304091436
O 14.601989100240818 -1.5783963977798177 0.7672031616481543
H 15.340681962359888 -2.098051383798026 1.1182856417874398
H 14.914372463207897 -0.6626167489848784 0.8194163179824994
C -4.14858607971831 -7.7164537382882905 3.744236699888566
O -4.28622861777189 -8.671621208135214 3.0360503588988554
O -4.010943541664731 -6.761286268441367 4.452423040878277