146

C -5.3564454929577465 1.0091607042253532 -0.0734429577464788
C -4.079135492957747 0.16955070422535368 -0.19788295774647868
C -4.333545492957747 -1.2789292957746463 0.3017270422535212
C -3.1403854929577464 -2.1745492957746464 0.7330270422535212
C -2.905235492957746 0.902300704225353 0.41966704225352136
C -2.7423854929577463 1.056130704225354 1.8024770422535212
C -1.8861754929577463 1.3499307042253532 -0.4326129577464788
C -1.5304554929577463 1.5279207042253526 2.3254170422535214
H -3.5237954929577464 0.7301007042253529 2.484817042253521
C -0.6776454929577462 1.8010507042253527 0.08546704225352131
H -1.9759254929577463 1.2426607042253535 -1.5115229577464788
C -0.4680254929577463 1.8513207042253539 1.4698070422535212
H -1.3950654929577464 1.5446707042253527 3.404047042253521
H 0.1461845070422536 1.9972507042253538 -0.6030529577464789
C -1.8679654929577463 -2.0866092957746467 -0.08765295774647863
C -0.6628654929577462 -1.814079295774647 0.5787970422535212
C -1.8438954929577462 -2.213429295774647 -1.4808029577464787
C 0.5129345070422537 -1.5763292957746469 -0.13022295774647863
H -0.6401854929577462 -1.7032692957746463 1.6609470422535213
C -0.6547954929577462 -1.9962392957746466 -2.1933129577464787
H -2.7578654929577464 -2.4351492957746466 -2.026182957746479
C 0.5308845070422537 -1.645769295774647 -1.5261029577464789
H 1.4044045070422537 -1.2610992957746463 0.41551704225352126
H -0.6795654929577464 -2.0467992957746466 -3.2793129577464786
C 1.7843245070422535 -1.2521692957746469 -2.2771629577464787
H 1.4981245070422535 -0.9384492957746469 -3.290282957746479
H 2.241984507042254 -0.38631929577464685 -1.8135029577464787
C 0.9385645070422537 2.0647807042253534 1.9815670422535212
H 1.0508945070422537 1.5807407042253532 2.9609770422535213
H 1.6053245070422537 1.5496207042253536 1.3096170422535214
C 3.9676945070422533 -1.6881692957746468 -3.314052957746479
H 4.795084507042254 -2.398849295774647 -3.4044129577464783
H 3.548404507042253 -1.4816192957746468 -4.303802957746479
H 4.307714507042253 -0.7637192957746466 -2.851282957746479
C 2.344694507042253 -3.565079295774647 -3.101282957746479
H 1.6334345070422536 -4.047909295774646 -2.4251929577464786
H 1.8561845070422536 -3.293109295774647 -4.041792957746479
H 3.1808045070422537 -4.243519295774647 -3.298122957746479
C 3.5156645070422536 -2.648489295774647 -1.1110629577464786
H 3.9311845070422535 -1.748249295774647 -0.6771029577464787
H 2.767184507042254 -3.1044092957746465 -0.45972295774647876
H 4.319224507042254 -3.371819295774647 -1.2863129577464787
C 2.963994507042253 3.381090704225353 2.401027042253521
H 3.3337945070422537 4.369820704225353 2.6912870422535216
H 3.120994507042253 2.671350704225353 3.2183370422535216
H 3.4665445070422534 3.0664207042253535 1.4881370422535212
C 1.2973745070422538 4.282440704225354 0.8488370422535213
H 1.7592145070422538 3.7367207042253527 0.02653704225352116
H 0.23311450704225378 4.4484607042253534 0.6605570422535213
H 1.7921845070422535 5.251370704225354 0.9736770422535213
C 0.7724845070422537 4.194670704225353 3.2772470422535216
H -0.2956954929577462 4.278220704225354 3.057857042253521
H 0.9298945070422537 3.612620704225354 4.190337042253521
H 1.2046345070422537 5.193640704225353 3.3918370422535213
N 2.876084507042253 -2.324759295774647 -2.4576629577464786
N 1.4527845070422536 3.504690704225353 2.1388470422535213
C -3.593905492957746 -3.637819295774647 0.8297870422535213
H -2.8952554929577463 -1.8680692957746468 1.7595270422535212
H -5.022615492957747 -1.2402792957746467 1.1579970422535213
H -4.898275492957747 -1.7933092957746464 -0.48931295774647876
H -3.883675492957746 0.07871070422535364 -1.2758929577464788
H -3.8751654929577466 -4.038529295774646 -0.1505529577464788
H -4.4603554929577465 -3.7321892957746465 1.4932570422535212
H -2.7953554929577464 -4.271929295774647 1.2313670422535212
H -5.648775492957746 1.147700704225353 0.9733970422535213
H -6.189795492957747 0.5254307042253537 -0.5943629577464788
H -5.2178854929577465 2.002970704225354 -0.5139729577464787
C 3.6710445070422537 1.0263707042253536 -0.27764295774647874
O 2.7356545070422538 1.6631507042253526 -0.7327029577464788
O 3.650814507042253 0.3883007042253537 0.7790570422535212
O 4.756604507042254 0.8696707042253538 -0.8334829577464786
O -7.2803178914024995 -6.5102798510920445 4.128002418324451
H -7.632914452190639 -6.032426756759706 3.362300490380303
H -7.876277060616923 -6.265085706402789 4.8516559572084645
O 8.22091918057995 -3.2302008631420236 -2.1102947391594635
H 9.16771322450416 -3.416230253701987 -2.1994096152325975
H 8.184035583453463 -2.5073969635933335 -1.4659686824457696
O 9.441738655796865 8.008484867284151 5.369228495181439
H 9.516794185160428 8.83951708622455 5.86189417847484
H 10.261513455065579 7.536691667933248 5.5798048467268515
O -13.310038559436418 4.357308872925934 3.5782426362811184
H -12.96403369012091 4.485494154019548 2.6822423455328894
H -14.235523491953462 4.637156213945534 3.5140160864112753
O -7.4840184677498245 -0.5618403627189041 -7.304898860451094
H -8.309808128105725 -0.39103346756869994 -7.782249673081003
H -7.003323281176018 0.277654575225339 -7.3609553593674955
O -0.6116414423927736 3.9828246810132906 -11.365437267967875
H -0.32620510653101675 4.137940026585579 -12.278362612471907
H -1.44893875640728 4.46570828831681 -11.29674539041577
O 1.32550996443543 -5.4508040010797 -5.467717089410459
H 1.6443122213513037 -5.222272338090139 -4.581655152017496
H 1.4707926214917246 -6.406865559778316 -5.5293708795407825
O 6.9906446504081305 -7.103133432257541 9.388282396179571
H 7.215587933792327 -7.312059037337506 10.307367793573258
H 7.791077205184111 -6.6812011140760745 9.041521976828097
O 0.44074112309376723 6.452593504185383 -6.240786337589191
H 0.9280002214554866 7.287844941771464 -6.30324403506606
H 0.46975381741513056 6.096767820158047 -7.141623887014554
O 10.884793771868898 -2.2900098079253466 6.341013963729855
H 10.806812045842875 -2.168659160604342 5.382807186619207
H 10.328357118008423 -1.5886899404804191 6.711811264242663
O -10.43754818275907 -2.034120640834309 5.333194177251932
H -10.364600934199517 -2.300184294130411 4.404293650703301
H -10.244416943996733 -1.0846456162103195 5.320566963410385
O -8.87618591260846 0.5284400488165844 -12.371958272127172
H -9.838894315731089 0.4847698725241898 -12.473214398656241
H -8.570540429601687 -0.34426896687620445 -12.661650793511619
O -4.112316764825747 -4.623860919372303 12.508549307567273
H -4.38248740788703 -5.409241136802591 13.007701683698055
H -4.177939458222041 -3.90304115983467 13.152812049522387
O -2.041200141622264 -5.315580969586467 1.9804921884324678
H -2.508803848425215 -5.588446010583829 2.7841455961186723
H -1.5428543366335228 -6.10481904501996 1.7202679327679407
O 7.376353858012884 0.9125578077593919 3.663973196078858
H 6.794695858530966 0.13840627012234474 3.6274940881828273
H 7.354860889714112 1.2642120312833116 2.7612886976567923
O -8.240632736223475 0.23604478465743423 -0.7334792347795882
H -8.441503664589593 1.1231271388813606 -1.06769940751288
H -8.82175098707797 0.13861486929994676 0.03578725637756941
O 1.3221504270927364 9.945320460954559 2.597352324422597
H 1.3744731828012242 9.244858831211879 3.2648725049364904
H 1.942763930177549 9.660346730985019 1.9098999280226394
O -8.65478956320963 -0.8167075876541134 -3.5605556958543496
H -8.656334766638896 -0.8676900271664056 -4.528215636178294
H -7.875365460779984 -1.3302810845425996 -3.3003590852971163
O -1.0812168731629015 9.945817318488997 -4.189260119498602
H -1.12693357774207 9.891613832872583 -3.2228547583951714
H -1.698131746383415 10.658736333745344 -4.413145047944528
O -2.187951503915823 -13.486723780531632 5.4436805884330095
H -2.980017463008223 -13.78800239888454 5.913606186235893
H -2.5290498463394746 -13.15196590799438 4.600738697274331
O 4.651830992759274 10.899719739718652 6.12646755407074
H 5.213595792444678 11.05088818798337 6.901409982244379
H 4.95074960136151 11.56405999451749 5.48751400678806
O 5.086317830745539 1.3474680681844866 2.1861907064387323
H 5.134289949908571 0.3879728706748979 2.312820081542002
H 5.958787883605171 1.664193347225627 2.464476618370009
O -3.2556190193480856 -5.311119816654586 6.614014103660507
H -3.625804194686514 -6.028499689946338 6.0780137209595555
H -2.71561379826103 -4.805810775170707 5.9878998344624925
O 6.285538119886352 4.833650080354182 -1.7888815828124423
H 6.3640029584200395 5.5121847140259845 -1.1015669700463846
H 5.334013149163805 4.656421597168824 -1.8352738142663507
C -4.848720913415112 4.360375714680757 -7.158136448952621
O -5.003397263084122 4.380131156697681 -5.971332671294415
O -4.6940445637461 4.340620272663833 -8.344940226610825