146

C -5.3564454929577465 1.0091607042253532 -0.0734429577464788
C -4.079135492957747 0.16955070422535368 -0.19788295774647868
C -4.333545492957747 -1.2789292957746463 0.3017270422535212
C -3.1403854929577464 -2.1745492957746464 0.7330270422535212
C -2.905235492957746 0.902300704225353 0.41966704225352136
C -2.7423854929577463 1.056130704225354 1.8024770422535212
C -1.8861754929577463 1.3499307042253532 -0.4326129577464788
C -1.5304554929577463 1.5279207042253526 2.3254170422535214
H -3.5237954929577464 0.7301007042253529 2.484817042253521
C -0.6776454929577462 1.8010507042253527 0.08546704225352131
H -1.9759254929577463 1.2426607042253535 -1.5115229577464788
C -0.4680254929577463 1.8513207042253539 1.4698070422535212
H -1.3950654929577464 1.5446707042253527 3.404047042253521
H 0.1461845070422536 1.9972507042253538 -0.6030529577464789
C -1.8679654929577463 -2.0866092957746467 -0.08765295774647863
C -0.6628654929577462 -1.814079295774647 0.5787970422535212
C -1.8438954929577462 -2.213429295774647 -1.4808029577464787
C 0.5129345070422537 -1.5763292957746469 -0.13022295774647863
H -0.6401854929577462 -1.7032692957746463 1.6609470422535213
C -0.6547954929577462 -1.9962392957746466 -2.1933129577464787
H -2.7578654929577464 -2.4351492957746466 -2.026182957746479
C 0.5308845070422537 -1.645769295774647 -1.5261029577464789
H 1.4044045070422537 -1.2610992957746463 0.41551704225352126
H -0.6795654929577464 -2.0467992957746466 -3.2793129577464786
C 1.7843245070422535 -1.2521692957746469 -2.2771629577464787
H 1.4981245070422535 -0.9384492957746469 -3.290282957746479
H 2.241984507042254 -0.38631929577464685 -1.8135029577464787
C 0.9385645070422537 2.0647807042253534 1.9815670422535212
H 1.0508945070422537 1.5807407042253532 2.9609770422535213
H 1.6053245070422537 1.5496207042253536 1.3096170422535214
C 3.9676945070422533 -1.6881692957746468 -3.314052957746479
H 4.795084507042254 -2.398849295774647 -3.4044129577464783
H 3.548404507042253 -1.4816192957746468 -4.303802957746479
H 4.307714507042253 -0.7637192957746466 -2.851282957746479
C 2.344694507042253 -3.565079295774647 -3.101282957746479
H 1.6334345070422536 -4.047909295774646 -2.4251929577464786
H 1.8561845070422536 -3.293109295774647 -4.041792957746479
H 3.1808045070422537 -4.243519295774647 -3.298122957746479
C 3.5156645070422536 -2.648489295774647 -1.1110629577464786
H 3.9311845070422535 -1.748249295774647 -0.6771029577464787
H 2.767184507042254 -3.1044092957746465 -0.45972295774647876
H 4.319224507042254 -3.371819295774647 -1.2863129577464787
C 2.963994507042253 3.381090704225353 2.401027042253521
H 3.3337945070422537 4.369820704225353 2.6912870422535216
H 3.120994507042253 2.671350704225353 3.2183370422535216
H 3.4665445070422534 3.0664207042253535 1.4881370422535212
C 1.2973745070422538 4.282440704225354 0.8488370422535213
H 1.7592145070422538 3.7367207042253527 0.02653704225352116
H 0.23311450704225378 4.4484607042253534 0.6605570422535213
H 1.7921845070422535 5.251370704225354 0.9736770422535213
C 0.7724845070422537 4.194670704225353 3.2772470422535216
H -0.2956954929577462 4.278220704225354 3.057857042253521
H 0.9298945070422537 3.612620704225354 4.190337042253521
H 1.2046345070422537 5.193640704225353 3.3918370422535213
N 2.876084507042253 -2.324759295774647 -2.4576629577464786
N 1.4527845070422536 3.504690704225353 2.1388470422535213
C -3.593905492957746 -3.637819295774647 0.8297870422535213
H -2.8952554929577463 -1.8680692957746468 1.7595270422535212
H -5.022615492957747 -1.2402792957746467 1.1579970422535213
H -4.898275492957747 -1.7933092957746464 -0.48931295774647876
H -3.883675492957746 0.07871070422535364 -1.2758929577464788
H -3.8751654929577466 -4.038529295774646 -0.1505529577464788
H -4.4603554929577465 -3.7321892957746465 1.4932570422535212
H -2.7953554929577464 -4.271929295774647 1.2313670422535212
H -5.648775492957746 1.147700704225353 0.9733970422535213
H -6.189795492957747 0.5254307042253537 -0.5943629577464788
H -5.2178854929577465 2.002970704225354 -0.5139729577464787
C 3.6710445070422537 1.0263707042253536 -0.27764295774647874
O 2.7356545070422538 1.6631507042253526 -0.7327029577464788
O 3.650814507042253 0.3883007042253537 0.7790570422535212
O 4.756604507042254 0.8696707042253538 -0.8334829577464786
O 7.236523772955856 -5.228832069883593 -4.465004956101567
H 7.769185607569139 -5.533983359649288 -3.715257387115349
H 7.854631437400216 -4.699780240557859 -4.991321421113097
O -11.03849921576951 -1.9635122453996503 -7.684497521470417
H -11.863626983710189 -1.6146735243230743 -8.053879532606443
H -10.814272823406306 -1.3372212804505004 -6.979909630224162
O -2.711329869866794 -5.992746578944596 -10.9534032661355
H -2.815796182057193 -6.908709322401113 -11.251843208363324
H -3.2132900602875183 -5.476585261580791 -11.601921119390173
O 7.366592373408946 1.7365552859846085 -5.20644897800132
H 6.622290430667844 2.289550842970228 -4.925063319365371
H 7.881572551327396 1.6071126123364228 -4.39589240694049
O 6.340980221398605 7.035923919516723 -2.721617896609223
H 6.056799903794841 7.663522031541407 -3.4030351797549296
H 5.543457008417826 6.889443086707205 -2.191087940172979
O 5.084406336084335 3.9491458268438313 -9.298811299010564
H 5.120642717542969 4.682079197098409 -9.931632724316355
H 5.605331625418664 3.249531332078351 -9.720875685030027
O -4.031600524284586 6.083971139474563 2.2390138059393743
H -4.130759101685898 6.228081988413829 1.285930915186554
H -3.5841509394348536 6.884661394519888 2.5514972915722214
O 3.3093827215817586 -5.171197097924449 -14.499284331340405
H 3.232997201997912 -4.774974798422095 -15.380272696005326
H 2.3966234485303204 -5.395352843727725 -14.26351610748064
O -5.027410223418954 4.976306358245096 4.8907032852673975
H -5.508690559022588 4.14559472200033 5.022060709377339
H -5.385726449683229 5.32571743094225 4.060954330117498
O -5.081739905969128 -8.019339225570548 6.911458173031521
H -5.597616917490025 -8.402353658458885 7.636812024667737
H -5.511433857029498 -8.360794625061526 6.112876140375774
O -14.528013637644548 3.099231498473957 -3.3905842322510424
H -15.06643620114014 3.3282411230975804 -4.162998040936893
H -13.631753104261026 3.368570528271531 -3.64185199306963
O -1.9806377514611069 -0.3787045431992748 6.322706734828746
H -1.3794824851330345 -0.5004080334177963 7.072885355648252
H -1.5441010056652966 -0.8460898967099513 5.594731086064515
O 3.292779347310744 5.401335622987954 5.723330522757461
H 3.2499303732085574 5.646301783785692 6.659878921070334
H 2.3693516375918784 5.232431483449012 5.483091889582072
O 7.312127059090466 -3.1437002342527935 -6.567541869411041
H 7.234902752738453 -2.7438068557615947 -5.6882870432955706
H 8.001652259772133 -3.8158501821809603 -6.459230330667156
O -2.500195327737136 -9.859453178485566 1.7468549530455966
H -3.3275570739132285 -10.2367329468133 2.0816681461473903
H -2.7454381148591436 -8.962563630839998 1.47407837965859
O 0.7583408893943377 6.776276905515564 8.104097470312972
H 0.6904685201299667 6.285002783684436 8.936569953707767
H 0.9099211705708967 6.0887628150273265 7.438282377334023
O 0.542238822421184 9.8776562948949 -2.940948667003577
H 1.0897174576453288 10.596825124914282 -2.5916197463547714
H 0.9635954788007159 9.07512118228084 -2.5983732658928167
O 3.817723420604743 2.956419843339958 -6.521107360252471
H 4.772470571407811 2.7908174481536503 -6.520067340069017
H 3.7237954301940754 3.78132229664876 -7.020782674274019
O 0.5617436229240476 -9.182742823189582 4.536008710965415
H -0.4018250717922537 -9.250834300546405 4.612600343498545
H 0.7049332310795976 -8.30128539453808 4.159855175967616
O -8.71439434495861 5.132299147518642 6.2265968036133605
H -9.02241371574304 4.914463083013903 7.119143089876796
H -9.478432666164768 5.56211192799355 5.813718659642401
O -6.0897015671039405 6.540989812879892 5.631839909603983
H -5.407934302465676 7.084331875689166 6.054853096809563
H -6.100075456910356 5.7271676743141775 6.157718083224655
O -1.6390694381672128 8.528596017691424 0.18408202950867303
H -1.5241901783173604 8.631282308514248 -0.7725922297004904
H -1.3083898476547944 7.635923578878019 0.36504851729430604
O -8.78528795115269 -2.6757087749548463 3.582430655524457
H -9.531354057104476 -2.0591692170930314 3.535189825287294
H -8.299297935730547 -2.3949585466323517 4.3723388517769415
O -0.7947593280079543 4.524275000612102 -10.829531937341589
H -1.1483603109295797 4.859647177135595 -9.992000323018429
H -0.4485224982158227 3.647985621690507 -10.603260139751388
C -8.689309718438217 6.661802223917855 -12.779055756887875
O -8.785516091851212 6.637581178170521 -11.586170208330248
O -8.593103345025222 6.6860232696651885 -13.9719413054455