146

C -5.3564454929577465 1.0091607042253532 -0.0734429577464788
C -4.079135492957747 0.16955070422535368 -0.19788295774647868
C -4.333545492957747 -1.2789292957746463 0.3017270422535212
C -3.1403854929577464 -2.1745492957746464 0.7330270422535212
C -2.905235492957746 0.902300704225353 0.41966704225352136
C -2.7423854929577463 1.056130704225354 1.8024770422535212
C -1.8861754929577463 1.3499307042253532 -0.4326129577464788
C -1.5304554929577463 1.5279207042253526 2.3254170422535214
H -3.5237954929577464 0.7301007042253529 2.484817042253521
C -0.6776454929577462 1.8010507042253527 0.08546704225352131
H -1.9759254929577463 1.2426607042253535 -1.5115229577464788
C -0.4680254929577463 1.8513207042253539 1.4698070422535212
H -1.3950654929577464 1.5446707042253527 3.404047042253521
H 0.1461845070422536 1.9972507042253538 -0.6030529577464789
C -1.8679654929577463 -2.0866092957746467 -0.08765295774647863
C -0.6628654929577462 -1.814079295774647 0.5787970422535212
C -1.8438954929577462 -2.213429295774647 -1.4808029577464787
C 0.5129345070422537 -1.5763292957746469 -0.13022295774647863
H -0.6401854929577462 -1.7032692957746463 1.6609470422535213
C -0.6547954929577462 -1.9962392957746466 -2.1933129577464787
H -2.7578654929577464 -2.4351492957746466 -2.026182957746479
C 0.5308845070422537 -1.645769295774647 -1.5261029577464789
H 1.4044045070422537 -1.2610992957746463 0.41551704225352126
H -0.6795654929577464 -2.0467992957746466 -3.2793129577464786
C 1.7843245070422535 -1.2521692957746469 -2.2771629577464787
H 1.4981245070422535 -0.9384492957746469 -3.290282957746479
H 2.241984507042254 -0.38631929577464685 -1.8135029577464787
C 0.9385645070422537 2.0647807042253534 1.9815670422535212
H 1.0508945070422537 1.5807407042253532 2.9609770422535213
H 1.6053245070422537 1.5496207042253536 1.3096170422535214
C 3.9676945070422533 -1.6881692957746468 -3.314052957746479
H 4.795084507042254 -2.398849295774647 -3.4044129577464783
H 3.548404507042253 -1.4816192957746468 -4.303802957746479
H 4.307714507042253 -0.7637192957746466 -2.851282957746479
C 2.344694507042253 -3.565079295774647 -3.101282957746479
H 1.6334345070422536 -4.047909295774646 -2.4251929577464786
H 1.8561845070422536 -3.293109295774647 -4.041792957746479
H 3.1808045070422537 -4.243519295774647 -3.298122957746479
C 3.5156645070422536 -2.648489295774647 -1.1110629577464786
H 3.9311845070422535 -1.748249295774647 -0.6771029577464787
H 2.767184507042254 -3.1044092957746465 -0.45972295774647876
H 4.319224507042254 -3.371819295774647 -1.2863129577464787
C 2.963994507042253 3.381090704225353 2.401027042253521
H 3.3337945070422537 4.369820704225353 2.6912870422535216
H 3.120994507042253 2.671350704225353 3.2183370422535216
H 3.4665445070422534 3.0664207042253535 1.4881370422535212
C 1.2973745070422538 4.282440704225354 0.8488370422535213
H 1.7592145070422538 3.7367207042253527 0.02653704225352116
H 0.23311450704225378 4.4484607042253534 0.6605570422535213
H 1.7921845070422535 5.251370704225354 0.9736770422535213
C 0.7724845070422537 4.194670704225353 3.2772470422535216
H -0.2956954929577462 4.278220704225354 3.057857042253521
H 0.9298945070422537 3.612620704225354 4.190337042253521
H 1.2046345070422537 5.193640704225353 3.3918370422535213
N 2.876084507042253 -2.324759295774647 -2.4576629577464786
N 1.4527845070422536 3.504690704225353 2.1388470422535213
C -3.593905492957746 -3.637819295774647 0.8297870422535213
H -2.8952554929577463 -1.8680692957746468 1.7595270422535212
H -5.022615492957747 -1.2402792957746467 1.1579970422535213
H -4.898275492957747 -1.7933092957746464 -0.48931295774647876
H -3.883675492957746 0.07871070422535364 -1.2758929577464788
H -3.8751654929577466 -4.038529295774646 -0.1505529577464788
H -4.4603554929577465 -3.7321892957746465 1.4932570422535212
H -2.7953554929577464 -4.271929295774647 1.2313670422535212
H -5.648775492957746 1.147700704225353 0.9733970422535213
H -6.189795492957747 0.5254307042253537 -0.5943629577464788
H -5.2178854929577465 2.002970704225354 -0.5139729577464787
C 3.6710445070422537 1.0263707042253536 -0.27764295774647874
O 2.7356545070422538 1.6631507042253526 -0.7327029577464788
O 3.650814507042253 0.3883007042253537 0.7790570422535212
O 4.756604507042254 0.8696707042253538 -0.8334829577464786
O 3.1083566189816376 9.737583373410892 -6.6801708628749115
H 4.009886790482279 9.492913925045038 -6.42259064661137
H 2.792046660176177 8.971133620198657 -7.1816334537641895
O 0.8890538480474062 7.920094032436401 3.2732227421906077
H 1.0889178758657012 8.338618499587835 2.4224237073534387
H 0.006277122327269069 7.541278703022623 3.1460765938888846
O -4.618319070850603 0.29127161240636545 -7.358432951546004
H -5.001183755010162 -0.05574029055355101 -8.178167499877073
H -5.297703836095291 0.11577849495361991 -6.690151236413729
O 8.871225606818646 -7.229198635734906 -4.692766179115359
H 9.157117229320363 -6.611915529653755 -5.382834946724895
H 8.066805603665662 -6.82426177977114 -4.335139913987179
O 0.8690760912440076 7.111592160225932 6.882110618997195
H 0.9062587589445141 6.756229671024108 7.782833832526722
H -0.06266315263246192 7.019480801043281 6.632431979081741
O 4.116724633792251 11.181739613243264 7.129211643087761
H 4.894166044816388 11.592379036871531 6.72186968221576
H 4.483082193612805 10.658985039966597 7.858232725622866
O 3.051554918782566 4.101157361527706 -10.799498114549664
H 3.7012024795047562 3.8571390174820976 -11.475797198917629
H 3.0860014545386627 3.3682132980036 -10.16659339800919
O 7.1071881730685 -9.637714688804943 2.2095117436895113
H 7.6984291669239475 -9.781475494638848 2.963656474355191
H 6.639834065467987 -8.818370128309649 2.4313598304419126
O -10.087699234297338 0.9915325055517973 6.982609854031102
H -10.870463604776736 0.5319938322850378 7.321831765145668
H -9.616001023900306 1.2713078952180967 7.781476847932657
O 9.381715568510327 7.430325204337083 4.7706443091002395
H 10.206328349902632 6.9700697632596835 4.553512905053995
H 8.709077745009333 6.733602062878143 4.737520800055574
O -9.256096117736886 3.8020640329392688 3.300093085504923
H -10.126809730913108 3.3778437546740276 3.2707278639295048
H -8.641702009433587 3.0922785301034112 3.059913228010082
O -5.771741981792415 -10.533919640027309 0.7044147014975589
H -5.853323390476114 -10.563101120948419 1.6695365963007154
H -6.288745486126763 -11.295905055139691 0.4026738392299329
O -8.16773749714989 -1.5093870814893093 7.53568212649645
H -8.321448841570508 -1.8471276515458026 8.430819818046928
H -7.833612613000282 -2.2781899672828874 7.049611525773184
O -2.5773523119849524 -9.696074693699654 2.326166938743952
H -2.7827526249363745 -9.7047306936004 3.273111045861778
H -1.6174233450000655 -9.824310010086098 2.2937011679291848
O -1.5624076144229941 -1.9211764866501728 8.271995534822416
H -1.5993235689068734 -2.434533207587807 9.093012858800847
H -1.7564067361008633 -1.014606377708311 8.5538765782811
O 3.3588967328175654 -3.6250152855009237 -7.956913236094081
H 3.633105006584251 -3.714157173211224 -8.88202452850886
H 2.4034929901964945 -3.472102994200858 -8.009671780947157
O 6.6959821991529305 -8.362573522036639 9.829084455480373
H 6.395264789621168 -8.742501113967755 8.989923313986125
H 7.4007736169912075 -7.750290738691098 9.569583405655614
O 4.929517980275594 3.5510137421220467 9.516541558893444
H 5.118885609997916 3.795478468153547 10.434879326514757
H 4.2043667519254475 4.141201757846558 9.261991472628601
O -10.28049200779518 8.624950828074155 3.8870187146557527
H -11.062651002932729 8.053811510635619 3.855482334057088
H -10.349920089888457 9.16152460675472 3.0831342293288415
O 3.741083313805496 11.42796199162253 5.0621253302820275
H 3.903426352508257 11.294025614701491 4.116253699656592
H 4.624256531899965 11.389344849739151 5.458957445279561
O -3.166919850650774 -8.998725866882307 5.405922043132078
H -3.4689102599720294 -9.204156900591853 4.508388066077721
H -3.8904025169204646 -8.475364629968121 5.782256723440645
O 4.866197063726507 7.62476714521557 -1.174502020472326
H 5.208363737425497 7.862117288888122 -0.2995424593448477
H 4.217526236578271 6.928641516624561 -0.9912065990194252
O -2.8740146888334897 -1.678138618873156 11.216535483185655
H -2.663197688078788 -2.371070315348347 11.860250647767634
H -2.280206830575908 -0.9500011180125632 11.453537490797473
O 9.337996495289746 4.068880595682254 4.826616040333198
H 8.53348966338015 4.248654250256746 5.335946529732486
H 9.198931445548256 3.1759837959852044 4.476818725690609
C 2.2592075934934543 -0.7888515170898193 8.425487820835281
O 2.461373926224936 -0.6383991286879895 7.255312145975266
O 2.057041260761973 -0.939303905491649 9.595663495695295