146

C -5.3564454929577465 1.0091607042253532 -0.0734429577464788
C -4.079135492957747 0.16955070422535368 -0.19788295774647868
C -4.333545492957747 -1.2789292957746463 0.3017270422535212
C -3.1403854929577464 -2.1745492957746464 0.7330270422535212
C -2.905235492957746 0.902300704225353 0.41966704225352136
C -2.7423854929577463 1.056130704225354 1.8024770422535212
C -1.8861754929577463 1.3499307042253532 -0.4326129577464788
C -1.5304554929577463 1.5279207042253526 2.3254170422535214
H -3.5237954929577464 0.7301007042253529 2.484817042253521
C -0.6776454929577462 1.8010507042253527 0.08546704225352131
H -1.9759254929577463 1.2426607042253535 -1.5115229577464788
C -0.4680254929577463 1.8513207042253539 1.4698070422535212
H -1.3950654929577464 1.5446707042253527 3.404047042253521
H 0.1461845070422536 1.9972507042253538 -0.6030529577464789
C -1.8679654929577463 -2.0866092957746467 -0.08765295774647863
C -0.6628654929577462 -1.814079295774647 0.5787970422535212
C -1.8438954929577462 -2.213429295774647 -1.4808029577464787
C 0.5129345070422537 -1.5763292957746469 -0.13022295774647863
H -0.6401854929577462 -1.7032692957746463 1.6609470422535213
C -0.6547954929577462 -1.9962392957746466 -2.1933129577464787
H -2.7578654929577464 -2.4351492957746466 -2.026182957746479
C 0.5308845070422537 -1.645769295774647 -1.5261029577464789
H 1.4044045070422537 -1.2610992957746463 0.41551704225352126
H -0.6795654929577464 -2.0467992957746466 -3.2793129577464786
C 1.7843245070422535 -1.2521692957746469 -2.2771629577464787
H 1.4981245070422535 -0.9384492957746469 -3.290282957746479
H 2.241984507042254 -0.38631929577464685 -1.8135029577464787
C 0.9385645070422537 2.0647807042253534 1.9815670422535212
H 1.0508945070422537 1.5807407042253532 2.9609770422535213
H 1.6053245070422537 1.5496207042253536 1.3096170422535214
C 3.9676945070422533 -1.6881692957746468 -3.314052957746479
H 4.795084507042254 -2.398849295774647 -3.4044129577464783
H 3.548404507042253 -1.4816192957746468 -4.303802957746479
H 4.307714507042253 -0.7637192957746466 -2.851282957746479
C 2.344694507042253 -3.565079295774647 -3.101282957746479
H 1.6334345070422536 -4.047909295774646 -2.4251929577464786
H 1.8561845070422536 -3.293109295774647 -4.041792957746479
H 3.1808045070422537 -4.243519295774647 -3.298122957746479
C 3.5156645070422536 -2.648489295774647 -1.1110629577464786
H 3.9311845070422535 -1.748249295774647 -0.6771029577464787
H 2.767184507042254 -3.1044092957746465 -0.45972295774647876
H 4.319224507042254 -3.371819295774647 -1.2863129577464787
C 2.963994507042253 3.381090704225353 2.401027042253521
H 3.3337945070422537 4.369820704225353 2.6912870422535216
H 3.120994507042253 2.671350704225353 3.2183370422535216
H 3.4665445070422534 3.0664207042253535 1.4881370422535212
C 1.2973745070422538 4.282440704225354 0.8488370422535213
H 1.7592145070422538 3.7367207042253527 0.02653704225352116
H 0.23311450704225378 4.4484607042253534 0.6605570422535213
H 1.7921845070422535 5.251370704225354 0.9736770422535213
C 0.7724845070422537 4.194670704225353 3.2772470422535216
H -0.2956954929577462 4.278220704225354 3.057857042253521
H 0.9298945070422537 3.612620704225354 4.190337042253521
H 1.2046345070422537 5.193640704225353 3.3918370422535213
N 2.876084507042253 -2.324759295774647 -2.4576629577464786
N 1.4527845070422536 3.504690704225353 2.1388470422535213
C -3.593905492957746 -3.637819295774647 0.8297870422535213
H -2.8952554929577463 -1.8680692957746468 1.7595270422535212
H -5.022615492957747 -1.2402792957746467 1.1579970422535213
H -4.898275492957747 -1.7933092957746464 -0.48931295774647876
H -3.883675492957746 0.07871070422535364 -1.2758929577464788
H -3.8751654929577466 -4.038529295774646 -0.1505529577464788
H -4.4603554929577465 -3.7321892957746465 1.4932570422535212
H -2.7953554929577464 -4.271929295774647 1.2313670422535212
H -5.648775492957746 1.147700704225353 0.9733970422535213
H -6.189795492957747 0.5254307042253537 -0.5943629577464788
H -5.2178854929577465 2.002970704225354 -0.5139729577464787
C 3.6710445070422537 1.0263707042253536 -0.27764295774647874
O 2.7356545070422538 1.6631507042253526 -0.7327029577464788
O 3.650814507042253 0.3883007042253537 0.7790570422535212
O 4.756604507042254 0.8696707042253538 -0.8334829577464786
O -1.420599990719957 -0.22997039059310898 10.900879621841849
H -1.0567743806756669 0.5882979602241349 11.271062263826494
H -1.8333143855979959 -0.6673747611853348 11.660686300640656
O -6.11591415591249 -3.7734233313151035 -3.246062069465095
H -6.260199480495428 -3.3263000391590145 -4.093546502137164
H -5.640965367125185 -4.583104537149122 -3.4864824039807982
O 11.10290539385503 2.5083314346369603 -1.6589931569428487
H 11.124031956950455 3.4770866552193156 -1.6648538587956967
H 10.91869458653197 2.283823477332723 -0.7345341260104528
O 6.05853817379107 -4.0809269574878035 -12.771868626742306
H 6.804863308322837 -4.184322982939016 -12.162544893094065
H 6.238515820433241 -3.2420035261766955 -13.22217681832485
O -7.572053542102182 1.2156889873733079 -1.9737845276633963
H -7.358120975941296 2.1603719055885544 -2.001612536362282
H -6.831518982642796 0.8222066729096223 -1.4882516464384552
O 0.313815091831269 2.758066719045816 -4.9753726026849225
H 0.5285398032120217 2.811322397424128 -5.9187836943851
H 0.04849165421210566 3.660956811864862 -4.744385810769967
O -3.491597630121102 -8.373388725835923 -6.2954581788242
H -2.7979114286265094 -8.187470369093711 -5.644919036741049
H -4.2811841041723255 -7.953750576736736 -5.922069683934541
O 4.769013216613175 3.496644776525196 -12.36468655157934
H 4.352685416087127 3.6926639307941636 -13.217455576913174
H 4.112327555915722 3.7831434370316837 -11.712272262295041
O 2.467958554336035 1.9855412434508035 11.550834393980207
H 2.093525937956361 1.0987978719556433 11.439237952278564
H 3.416857409163854 1.859590530778587 11.400204630706757
O -0.7154700513648589 -2.3069307929628717 -14.377567222140975
H -0.7011574491764847 -1.3658283536713443 -14.147157358901277
H -1.0252400531040875 -2.74126545348543 -13.568643311633174
O -5.262679378642761 -3.2816320101208296 -8.862247115111007
H -5.2282189306492635 -3.2709928193448414 -9.83057900142051
H -4.439453975178507 -2.846570314634766 -8.593950263635058
O -4.465648626913957 -2.7462145088005396 8.372667582794033
H -4.183159810419637 -3.6475767755061503 8.156534545951066
H -5.162294084558836 -2.87160201373783 9.034426620698584
O 2.023414568982019 -3.967409542258751 4.415431411602383
H 1.8121367188588349 -3.0220690899346008 4.441130752973255
H 2.688770570679327 -4.039573048101163 3.714677700424266
O -9.902034486570404 6.426986003632536 -5.647174768863869
H -10.435573764430565 6.603127136970133 -6.436654025733237
H -10.525667435883047 6.537425944601111 -4.913794302618365
O 3.034536159865252 10.060230755788087 -1.1665037980052386
H 2.734402882159631 10.645469030811011 -1.8781101034592267
H 3.8877707281653606 9.726530244127844 -1.4820932215850178
O -12.898588953595553 1.356770916637727 3.651455246649158
H -13.562240670697173 2.0625372044676173 3.6307742831587864
H -12.696029694407292 1.1985088248994868 2.7171722054160754
O -9.060454082803645 0.3355074997370755 8.172880042447854
H -8.529914307668525 0.08142572570935869 8.942904299212865
H -8.643407664220343 -0.1352047251241011 7.4356797776533545
O 0.8916096041369193 -7.873243139302201 -7.521747231659877
H 1.253095425209398 -8.770224196825835 -7.460752637576938
H 1.4271953102259198 -7.451372138802247 -8.210321668209996
O -0.855085530237619 8.402126369844812 4.634690643979867
H -1.7280587281189723 8.214688318225097 4.258190804025305
H -1.039356807714395 9.023594672453811 5.354956698607851
O -3.514617078370073 6.344495002115145 6.9018746805519315
H -3.7067632540827646 5.560751456779029 6.365411019897304
H -3.1544959692316974 6.980840599101727 6.265998110572556
O 8.46333202983844 -4.4486867169787345 -6.0214612848968585
H 9.166910368843585 -4.666588274489578 -6.651114990529653
H 8.406502602146436 -5.231887505830704 -5.453721128848468
O -2.5866123938857335 -1.2328873804160319 6.6210278461781416
H -2.210784873549606 -0.9147985795635694 5.786437799130944
H -3.4229700138392802 -1.6459941648656804 6.3587099846297725
O 1.5941516740510684 -6.53349184255735 10.837281228324425
H 1.565201386788289 -6.598525004984237 11.803666206245834
H 2.3129884046018945 -7.1318331567458815 10.583857924648264
O -8.830542318610949 3.624412450310683 -7.136864269338315
H -9.658239563397247 3.1886818102514765 -7.389892799719307
H -8.143578406057564 3.079508636425767 -7.549323189429783
C -2.639743416006839 5.3174293900129594 -0.707935747916759
O -2.1907698323281544 4.603291378415716 -1.557198886673326
O -3.0887169996855235 6.031567401610203 0.14132739083980783