146

C -5.3564454929577465 1.0091607042253532 -0.0734429577464788
C -4.079135492957747 0.16955070422535368 -0.19788295774647868
C -4.333545492957747 -1.2789292957746463 0.3017270422535212
C -3.1403854929577464 -2.1745492957746464 0.7330270422535212
C -2.905235492957746 0.902300704225353 0.41966704225352136
C -2.7423854929577463 1.056130704225354 1.8024770422535212
C -1.8861754929577463 1.3499307042253532 -0.4326129577464788
C -1.5304554929577463 1.5279207042253526 2.3254170422535214
H -3.5237954929577464 0.7301007042253529 2.484817042253521
C -0.6776454929577462 1.8010507042253527 0.08546704225352131
H -1.9759254929577463 1.2426607042253535 -1.5115229577464788
C -0.4680254929577463 1.8513207042253539 1.4698070422535212
H -1.3950654929577464 1.5446707042253527 3.404047042253521
H 0.1461845070422536 1.9972507042253538 -0.6030529577464789
C -1.8679654929577463 -2.0866092957746467 -0.08765295774647863
C -0.6628654929577462 -1.814079295774647 0.5787970422535212
C -1.8438954929577462 -2.213429295774647 -1.4808029577464787
C 0.5129345070422537 -1.5763292957746469 -0.13022295774647863
H -0.6401854929577462 -1.7032692957746463 1.6609470422535213
C -0.6547954929577462 -1.9962392957746466 -2.1933129577464787
H -2.7578654929577464 -2.4351492957746466 -2.026182957746479
C 0.5308845070422537 -1.645769295774647 -1.5261029577464789
H 1.4044045070422537 -1.2610992957746463 0.41551704225352126
H -0.6795654929577464 -2.0467992957746466 -3.2793129577464786
C 1.7843245070422535 -1.2521692957746469 -2.2771629577464787
H 1.4981245070422535 -0.9384492957746469 -3.290282957746479
H 2.241984507042254 -0.38631929577464685 -1.8135029577464787
C 0.9385645070422537 2.0647807042253534 1.9815670422535212
H 1.0508945070422537 1.5807407042253532 2.9609770422535213
H 1.6053245070422537 1.5496207042253536 1.3096170422535214
C 3.9676945070422533 -1.6881692957746468 -3.314052957746479
H 4.795084507042254 -2.398849295774647 -3.4044129577464783
H 3.548404507042253 -1.4816192957746468 -4.303802957746479
H 4.307714507042253 -0.7637192957746466 -2.851282957746479
C 2.344694507042253 -3.565079295774647 -3.101282957746479
H 1.6334345070422536 -4.047909295774646 -2.4251929577464786
H 1.8561845070422536 -3.293109295774647 -4.041792957746479
H 3.1808045070422537 -4.243519295774647 -3.298122957746479
C 3.5156645070422536 -2.648489295774647 -1.1110629577464786
H 3.9311845070422535 -1.748249295774647 -0.6771029577464787
H 2.767184507042254 -3.1044092957746465 -0.45972295774647876
H 4.319224507042254 -3.371819295774647 -1.2863129577464787
C 2.963994507042253 3.381090704225353 2.401027042253521
H 3.3337945070422537 4.369820704225353 2.6912870422535216
H 3.120994507042253 2.671350704225353 3.2183370422535216
H 3.4665445070422534 3.0664207042253535 1.4881370422535212
C 1.2973745070422538 4.282440704225354 0.8488370422535213
H 1.7592145070422538 3.7367207042253527 0.02653704225352116
H 0.23311450704225378 4.4484607042253534 0.6605570422535213
H 1.7921845070422535 5.251370704225354 0.9736770422535213
C 0.7724845070422537 4.194670704225353 3.2772470422535216
H -0.2956954929577462 4.278220704225354 3.057857042253521
H 0.9298945070422537 3.612620704225354 4.190337042253521
H 1.2046345070422537 5.193640704225353 3.3918370422535213
N 2.876084507042253 -2.324759295774647 -2.4576629577464786
N 1.4527845070422536 3.504690704225353 2.1388470422535213
C -3.593905492957746 -3.637819295774647 0.8297870422535213
H -2.8952554929577463 -1.8680692957746468 1.7595270422535212
H -5.022615492957747 -1.2402792957746467 1.1579970422535213
H -4.898275492957747 -1.7933092957746464 -0.48931295774647876
H -3.883675492957746 0.07871070422535364 -1.2758929577464788
H -3.8751654929577466 -4.038529295774646 -0.1505529577464788
H -4.4603554929577465 -3.7321892957746465 1.4932570422535212
H -2.7953554929577464 -4.271929295774647 1.2313670422535212
H -5.648775492957746 1.147700704225353 0.9733970422535213
H -6.189795492957747 0.5254307042253537 -0.5943629577464788
H -5.2178854929577465 2.002970704225354 -0.5139729577464787
C 3.6710445070422537 1.0263707042253536 -0.27764295774647874
O 2.7356545070422538 1.6631507042253526 -0.7327029577464788
O 3.650814507042253 0.3883007042253537 0.7790570422535212
O 4.756604507042254 0.8696707042253538 -0.8334829577464786
O -2.7186627136998593 8.600835167231411 8.920966748285661
H -2.2982982079443275 8.745825139518235 8.060014399350381
H -2.071983552374796 8.94096710552554 9.557424344013913
O -8.810106030765073 1.7173689486958894 6.740056048792057
H -9.550565925706952 2.2759610045265637 7.02052247467138
H -8.385809155169287 2.2281284642224755 6.034323221895998
O 10.398979395644387 -2.4555083952125134 -8.475540732715217
H 11.362744725552627 -2.5467024154156053 -8.51805421817639
H 10.246150946701098 -1.5112924989729937 -8.63065923832363
O 6.980292012180242 -8.70070487663466 0.3326248068478187
H 7.0988235935579445 -8.663400602946494 -0.6283778009950012
H 6.591381741358651 -9.574753609029242 0.4867337259566673
O -8.858595476322222 -7.368390917866531 9.184872027331949
H -8.97440805122365 -7.469897171811763 10.141559690472176
H -9.352824146094465 -6.562147523831063 8.973515561026014
O 4.36876455498796 -9.556941117778623 -3.8523771549163506
H 3.6154848225050413 -9.789543364210683 -3.288965053089258
H 4.950348231354977 -9.048455573808159 -3.2674285902916593
O -6.192065258839455 2.4425925522075684 5.965309367767373
H -6.189631794230273 2.5150104605418053 4.999018996449056
H -6.76764176780981 3.1671468682963875 6.252876176802356
O -8.430865207935666 -3.8085288627725715 -2.284038223441469
H -7.890748026636076 -4.2124117206928275 -2.9798251336684105
H -7.800569369110141 -3.637148972525347 -1.568274272771923
O 1.5076976063759637 4.860864274967074 -8.869802344201288
H 1.5112487201939295 4.845301803769591 -9.83867413963187
H 0.6238600014105089 4.541325388284266 -8.633819437518536
O 2.872807125237033 1.9538808701242483 11.89818419299483
H 3.0681167809467516 1.1153481215723182 11.453567138786944
H 2.3321076868871673 2.4386115677332936 11.256590698277508
O 9.030527027670136 1.436492253338386 4.83543917810743
H 8.755293397625387 0.5178008694626881 4.974075201510247
H 8.39416900805717 1.9521540289142025 5.353226150118372
O 1.12131267741763 -5.544283033962451 10.89974453818026
H 1.8178809757781016 -5.598802921219436 10.228337400511407
H 0.8575970592619506 -4.611929215147093 10.888239166339805
O -7.307810564028822 -1.5243144801383255 -7.760059154040307
H -6.505228522669608 -2.065887579825769 -7.799148813575922
H -7.2445613846927435 -0.9553661196100194 -8.541889857367737
O 8.404785465758717 9.084845888378535 2.042394122103032
H 8.772250548142637 9.977310633957025 2.128669541708531
H 7.465260512387324 9.23528288674088 1.8590269608766863
O -6.093555132788613 2.0327063085107477 -7.256205557317358
H -6.060950547873185 1.9142134165515592 -8.217383861534449
H -5.277951142149414 2.5144068783024496 -7.051959049842291
O -2.9775070033673288 3.237948284293601 4.564705849557372
H -3.0274112829872264 4.11136578938519 4.148029978435461
H -3.896694493383902 3.0357712834821684 4.795315395847039
O -0.9202730263574017 3.2844195947192882 6.752586915456671
H -0.2541447782434514 3.958842771802911 6.551604597385972
H -0.8787934093842249 3.194412276858733 7.71650603468157
O -12.635614722871306 -5.583536519156516 5.0184402878576435
H -13.282515102494498 -5.4549992299317465 5.7283455076032945
H -12.811738715612107 -6.482016384080911 4.701145132195794
O 1.260224587450405 7.113384914766656 -2.4972628671270765
H 0.7178750548431873 6.882905240593272 -3.266485501462328
H 1.0414222917316893 6.431982391114608 -1.843980309232839
O -1.9941005004586636 -0.4829068105904639 -6.677696891120073
H -1.5744803361163389 -1.1686517210367426 -7.2186591748093765
H -2.8508975440820596 -0.33815547028958504 -7.106541641372781
O -2.364343835527474 -1.782646978809673 13.365575489972754
H -3.1307172533917 -2.152845210854454 13.828816690949122
H -2.5689004866740577 -0.8383290564893722 13.292212131568407
O -0.9613324776133556 -6.578095053440178 6.637908347314609
H -0.7100292614341248 -5.664044068059885 6.437097873077601
H -0.9998300826476427 -6.602996176036433 7.605823536161273
O 6.661276195411448 -1.7996488046684798 2.0630361369634453
H 6.306682162554981 -2.5348869329251 1.5408720597613739
H 6.788409412031509 -1.0915012244543898 1.4139397695658416
O -8.905658001656084 -7.23126735420214 2.8707973316462123
H -9.048271016083529 -6.3488155932857255 3.24483980874131
H -9.175602879173768 -7.139367635996087 1.944705462987594
C -8.989805713484053 -2.974838430403194 -4.6818089776052725
O -9.836663296535253 -2.381900922371962 -4.078422200406441
O -8.142948130432853 -3.5677759384344263 -5.2851957548041035