146

C -5.3564454929577465 1.0091607042253532 -0.0734429577464788
C -4.079135492957747 0.16955070422535368 -0.19788295774647868
C -4.333545492957747 -1.2789292957746463 0.3017270422535212
C -3.1403854929577464 -2.1745492957746464 0.7330270422535212
C -2.905235492957746 0.902300704225353 0.41966704225352136
C -2.7423854929577463 1.056130704225354 1.8024770422535212
C -1.8861754929577463 1.3499307042253532 -0.4326129577464788
C -1.5304554929577463 1.5279207042253526 2.3254170422535214
H -3.5237954929577464 0.7301007042253529 2.484817042253521
C -0.6776454929577462 1.8010507042253527 0.08546704225352131
H -1.9759254929577463 1.2426607042253535 -1.5115229577464788
C -0.4680254929577463 1.8513207042253539 1.4698070422535212
H -1.3950654929577464 1.5446707042253527 3.404047042253521
H 0.1461845070422536 1.9972507042253538 -0.6030529577464789
C -1.8679654929577463 -2.0866092957746467 -0.08765295774647863
C -0.6628654929577462 -1.814079295774647 0.5787970422535212
C -1.8438954929577462 -2.213429295774647 -1.4808029577464787
C 0.5129345070422537 -1.5763292957746469 -0.13022295774647863
H -0.6401854929577462 -1.7032692957746463 1.6609470422535213
C -0.6547954929577462 -1.9962392957746466 -2.1933129577464787
H -2.7578654929577464 -2.4351492957746466 -2.026182957746479
C 0.5308845070422537 -1.645769295774647 -1.5261029577464789
H 1.4044045070422537 -1.2610992957746463 0.41551704225352126
H -0.6795654929577464 -2.0467992957746466 -3.2793129577464786
C 1.7843245070422535 -1.2521692957746469 -2.2771629577464787
H 1.4981245070422535 -0.9384492957746469 -3.290282957746479
H 2.241984507042254 -0.38631929577464685 -1.8135029577464787
C 0.9385645070422537 2.0647807042253534 1.9815670422535212
H 1.0508945070422537 1.5807407042253532 2.9609770422535213
H 1.6053245070422537 1.5496207042253536 1.3096170422535214
C 3.9676945070422533 -1.6881692957746468 -3.314052957746479
H 4.795084507042254 -2.398849295774647 -3.4044129577464783
H 3.548404507042253 -1.4816192957746468 -4.303802957746479
H 4.307714507042253 -0.7637192957746466 -2.851282957746479
C 2.344694507042253 -3.565079295774647 -3.101282957746479
H 1.6334345070422536 -4.047909295774646 -2.4251929577464786
H 1.8561845070422536 -3.293109295774647 -4.041792957746479
H 3.1808045070422537 -4.243519295774647 -3.298122957746479
C 3.5156645070422536 -2.648489295774647 -1.1110629577464786
H 3.9311845070422535 -1.748249295774647 -0.6771029577464787
H 2.767184507042254 -3.1044092957746465 -0.45972295774647876
H 4.319224507042254 -3.371819295774647 -1.2863129577464787
C 2.963994507042253 3.381090704225353 2.401027042253521
H 3.3337945070422537 4.369820704225353 2.6912870422535216
H 3.120994507042253 2.671350704225353 3.2183370422535216
H 3.4665445070422534 3.0664207042253535 1.4881370422535212
C 1.2973745070422538 4.282440704225354 0.8488370422535213
H 1.7592145070422538 3.7367207042253527 0.02653704225352116
H 0.23311450704225378 4.4484607042253534 0.6605570422535213
H 1.7921845070422535 5.251370704225354 0.9736770422535213
C 0.7724845070422537 4.194670704225353 3.2772470422535216
H -0.2956954929577462 4.278220704225354 3.057857042253521
H 0.9298945070422537 3.612620704225354 4.190337042253521
H 1.2046345070422537 5.193640704225353 3.3918370422535213
N 2.876084507042253 -2.324759295774647 -2.4576629577464786
N 1.4527845070422536 3.504690704225353 2.1388470422535213
C -3.593905492957746 -3.637819295774647 0.8297870422535213
H -2.8952554929577463 -1.8680692957746468 1.7595270422535212
H -5.022615492957747 -1.2402792957746467 1.1579970422535213
H -4.898275492957747 -1.7933092957746464 -0.48931295774647876
H -3.883675492957746 0.07871070422535364 -1.2758929577464788
H -3.8751654929577466 -4.038529295774646 -0.1505529577464788
H -4.4603554929577465 -3.7321892957746465 1.4932570422535212
H -2.7953554929577464 -4.271929295774647 1.2313670422535212
H -5.648775492957746 1.147700704225353 0.9733970422535213
H -6.189795492957747 0.5254307042253537 -0.5943629577464788
H -5.2178854929577465 2.002970704225354 -0.5139729577464787
C 3.6710445070422537 1.0263707042253536 -0.27764295774647874
O 2.7356545070422538 1.6631507042253526 -0.7327029577464788
O 3.650814507042253 0.3883007042253537 0.7790570422535212
O 4.756604507042254 0.8696707042253538 -0.8334829577464786
O 7.713270837140865 -0.3347513629120935 4.4933970468039774
H 7.647475857063323 -0.3535232136383346 5.459981753447377
H 7.762796382635249 -1.269787737921872 4.243965408770516
O -1.7072387393046402 9.42758411908909 2.2634320425856864
H -1.8029379632953986 10.211843383592848 2.824454699407666
H -1.5057524760156573 9.789599430691373 1.3874696323354847
O -2.7111803276646755 7.275302728547496 -12.1209033657254
H -2.8010932849506185 7.255098569098783 -13.085514587385747
H -2.063026742512829 7.977627134282565 -11.960905542416166
O 5.7559476036654385 -3.205812766323363 -6.314704351581499
H 5.698389999112231 -3.652017339578849 -7.172932734859509
H 5.093073810260995 -3.657553134915864 -5.77111358850553
O -1.865048097848871 -10.418451921306186 -3.232676641539697
H -1.1907343670385526 -10.667808187300453 -3.8823610279536425
H -2.077507994022789 -9.499938045206143 -3.4566297532158807
O 7.43091840623448 7.3558408862784415 -1.585443402321114
H 7.800320476817991 7.256281106838702 -2.4757227503161845
H 7.200829254662843 6.451300941422232 -1.3250045135418635
O 8.135855677270097 -9.928990876510639 -3.3542819323454496
H 8.483729011294475 -9.909048619499332 -4.258468753063414
H 8.698961472361843 -9.30428222544681 -2.8730201437936254
O 5.676292446761714 -7.009320673502225 -3.342418310630715
H 6.406683616885907 -7.0420479411444905 -2.7064741138199535
H 5.596530270924577 -7.923222412428682 -3.6544816875158004
O -5.268251244615399 8.238224556498627 -1.2331462561959246
H -6.213150650617811 8.386280919198478 -1.3887476151243785
H -5.20593526451896 7.2870321141793495 -1.059043985678545
O -3.1046819196306013 1.7100419106563223 -6.229037751999476
H -3.487944952416218 2.2011374213470054 -6.971265482537368
H -3.402985016594692 2.1978141060853935 -5.446697997156392
O 9.683746984769646 -2.5384449755692984 -8.480396330625027
H 9.488010115896733 -3.0530112301446755 -7.682977993291293
H 9.023413888842002 -1.829361119101506 -8.469340507753007
O -5.113234563570243 2.343538999196485 8.483561704618023
H -5.474453339970776 2.496261932807693 7.597466868821712
H -4.227988240903356 1.9863475587262271 8.317082975167276
O 2.689354355036278 7.271722976164304 3.599481835833731
H 2.8655339549086842 6.896550356434478 4.475366309319739
H 3.522173732823315 7.147710862152028 3.1199040800311737
O 1.4876489424189416 -11.431173695864553 -3.519779079757751
H 1.8318565606555823 -11.014037477769964 -2.7157356431191544
H 1.862991061209888 -10.900036823946126 -4.2380922854349325
O -6.435965202400485 -7.296352282594454 -4.649902824974663
H -6.255753320475989 -7.441489528124281 -5.590873714255116
H -7.162788692580223 -7.906512473749265 -4.453958701426983
O 1.676478650786851 -1.1667925249982538 -7.134230773495551
H 1.4446795221191313 -0.769779759759613 -6.281225858453173
H 1.3841522302050455 -2.0869176591348126 -7.051303421795353
O 1.9412404943378558 1.210931529986751 -3.7727472150082186
H 2.0830632189857763 1.2180070176076847 -4.731289654938954
H 2.508351757228417 1.9259157927376243 -3.4469493270143556
O -10.729896150245503 -3.520685351797046 -5.292079867967747
H -11.334619377220704 -4.165497904292202 -5.688934939500648
H -11.158697606977702 -2.6669939246791707 -5.454259405116519
O -7.942557062030198 2.6401236660053176 -1.2442276265960985
H -7.964009019474094 1.8517663393844965 -0.6812001885567973
H -8.86298883952925 2.7517319325008294 -1.5258495045100902
O 6.614229659946157 -4.966703689137084 10.332939606247532
H 6.502722671165408 -4.825530774151073 11.285097028330354
H 6.719702044147001 -4.072622979807185 9.974530335057272
O -1.0117162448403594 5.216239085027385 9.095460378584562
H -0.9264434100966933 4.611376290662286 9.847681689468283
H -1.78948552270109 4.8890545954084486 8.619028636916573
O -7.926421062164255 2.058816785875445 1.9746459528376619
H -7.517130308646345 2.8917444043813014 1.6959345997949409
H -7.603451497532834 1.9304898261185655 2.8791816326321884
O 2.4474213349560463 -3.2496463099348305 -7.542639158608822
H 2.812692807793144 -3.7758230303489912 -6.815533824475167
H 3.2035754306106923 -2.734401017100706 -7.8615673889945645
O 7.162802192300048 -9.366550321724736 6.741142578660755
H 7.354508015685809 -9.61183715354685 7.658775732112971
H 6.759513000437124 -10.163423721159155 6.3652269534196835
C -1.9100869272041823 -0.36831286085035164 10.137233511500927
O -1.3327167618519207 0.6137701518824021 10.504622822127763
O -2.4874570925564434 -1.3503958735831054 9.769844200874093