146

C -5.3564454929577465 1.0091607042253532 -0.0734429577464788
C -4.079135492957747 0.16955070422535368 -0.19788295774647868
C -4.333545492957747 -1.2789292957746463 0.3017270422535212
C -3.1403854929577464 -2.1745492957746464 0.7330270422535212
C -2.905235492957746 0.902300704225353 0.41966704225352136
C -2.7423854929577463 1.056130704225354 1.8024770422535212
C -1.8861754929577463 1.3499307042253532 -0.4326129577464788
C -1.5304554929577463 1.5279207042253526 2.3254170422535214
H -3.5237954929577464 0.7301007042253529 2.484817042253521
C -0.6776454929577462 1.8010507042253527 0.08546704225352131
H -1.9759254929577463 1.2426607042253535 -1.5115229577464788
C -0.4680254929577463 1.8513207042253539 1.4698070422535212
H -1.3950654929577464 1.5446707042253527 3.404047042253521
H 0.1461845070422536 1.9972507042253538 -0.6030529577464789
C -1.8679654929577463 -2.0866092957746467 -0.08765295774647863
C -0.6628654929577462 -1.814079295774647 0.5787970422535212
C -1.8438954929577462 -2.213429295774647 -1.4808029577464787
C 0.5129345070422537 -1.5763292957746469 -0.13022295774647863
H -0.6401854929577462 -1.7032692957746463 1.6609470422535213
C -0.6547954929577462 -1.9962392957746466 -2.1933129577464787
H -2.7578654929577464 -2.4351492957746466 -2.026182957746479
C 0.5308845070422537 -1.645769295774647 -1.5261029577464789
H 1.4044045070422537 -1.2610992957746463 0.41551704225352126
H -0.6795654929577464 -2.0467992957746466 -3.2793129577464786
C 1.7843245070422535 -1.2521692957746469 -2.2771629577464787
H 1.4981245070422535 -0.9384492957746469 -3.290282957746479
H 2.241984507042254 -0.38631929577464685 -1.8135029577464787
C 0.9385645070422537 2.0647807042253534 1.9815670422535212
H 1.0508945070422537 1.5807407042253532 2.9609770422535213
H 1.6053245070422537 1.5496207042253536 1.3096170422535214
C 3.9676945070422533 -1.6881692957746468 -3.314052957746479
H 4.795084507042254 -2.398849295774647 -3.4044129577464783
H 3.548404507042253 -1.4816192957746468 -4.303802957746479
H 4.307714507042253 -0.7637192957746466 -2.851282957746479
C 2.344694507042253 -3.565079295774647 -3.101282957746479
H 1.6334345070422536 -4.047909295774646 -2.4251929577464786
H 1.8561845070422536 -3.293109295774647 -4.041792957746479
H 3.1808045070422537 -4.243519295774647 -3.298122957746479
C 3.5156645070422536 -2.648489295774647 -1.1110629577464786
H 3.9311845070422535 -1.748249295774647 -0.6771029577464787
H 2.767184507042254 -3.1044092957746465 -0.45972295774647876
H 4.319224507042254 -3.371819295774647 -1.2863129577464787
C 2.963994507042253 3.381090704225353 2.401027042253521
H 3.3337945070422537 4.369820704225353 2.6912870422535216
H 3.120994507042253 2.671350704225353 3.2183370422535216
H 3.4665445070422534 3.0664207042253535 1.4881370422535212
C 1.2973745070422538 4.282440704225354 0.8488370422535213
H 1.7592145070422538 3.7367207042253527 0.02653704225352116
H 0.23311450704225378 4.4484607042253534 0.6605570422535213
H 1.7921845070422535 5.251370704225354 0.9736770422535213
C 0.7724845070422537 4.194670704225353 3.2772470422535216
H -0.2956954929577462 4.278220704225354 3.057857042253521
H 0.9298945070422537 3.612620704225354 4.190337042253521
H 1.2046345070422537 5.193640704225353 3.3918370422535213
N 2.876084507042253 -2.324759295774647 -2.4576629577464786
N 1.4527845070422536 3.504690704225353 2.1388470422535213
C -3.593905492957746 -3.637819295774647 0.8297870422535213
H -2.8952554929577463 -1.8680692957746468 1.7595270422535212
H -5.022615492957747 -1.2402792957746467 1.1579970422535213
H -4.898275492957747 -1.7933092957746464 -0.48931295774647876
H -3.883675492957746 0.07871070422535364 -1.2758929577464788
H -3.8751654929577466 -4.038529295774646 -0.1505529577464788
H -4.4603554929577465 -3.7321892957746465 1.4932570422535212
H -2.7953554929577464 -4.271929295774647 1.2313670422535212
H -5.648775492957746 1.147700704225353 0.9733970422535213
H -6.189795492957747 0.5254307042253537 -0.5943629577464788
H -5.2178854929577465 2.002970704225354 -0.5139729577464787
C 3.6710445070422537 1.0263707042253536 -0.27764295774647874
O 2.7356545070422538 1.6631507042253526 -0.7327029577464788
O 3.650814507042253 0.3883007042253537 0.7790570422535212
O 4.756604507042254 0.8696707042253538 -0.8334829577464786
O -9.669526826620976 5.212561241451398 -9.522598102629686
H -9.100629917301209 5.875940925320698 -9.103968124611049
H -9.094707587279117 4.792564794422728 -10.179977575130724
O -8.716152842366263 -7.055258184555284 -4.530782129960581
H -8.639935332790891 -6.703437812980631 -3.631126265599545
H -7.798107516158531 -7.206342210007609 -4.801574191478747
O 3.3341298440771867 -11.47867569571526 -9.3492698833696
H 3.2563518850714424 -11.506457086658589 -10.314747040173504
H 3.1221392948649456 -10.56044878649202 -9.123701059009884
O 7.613584525869816 -4.650187732505462 -5.403186274506281
H 7.698862632534281 -5.342511962052304 -6.075779883311849
H 7.101904456250384 -5.072023407924962 -4.696645324810069
O -6.263761445374586 4.542878309577082 -4.385400141167882
H -5.951167758571199 4.502395571866632 -3.469095774803662
H -5.914351741481609 3.7336249917818107 -4.787872339913045
O -0.772865305720559 9.099718975424121 -4.030139473657156
H -1.2431892451519921 9.595192185551916 -3.3429211335763958
H -1.3582249175468237 9.154663816928808 -4.800397309407387
O 3.4815028923544826 12.004339665948667 -5.624571449646671
H 3.6056710736714597 12.94950671287238 -5.4507644501962895
H 4.346669171836831 11.709964169350048 -5.946739604728746
O 8.47018407629035 -3.6728210867629665 -0.8080215197922209
H 9.396134042157694 -3.547499997517473 -1.0646898703939005
H 7.978305724098224 -3.5345912430647215 -1.6313745068250711
O -5.206508487103207 1.2547800027905058 11.379367681589866
H -4.558361064580694 1.338525994898304 12.094810820059516
H -5.468732867008212 0.3224072317880893 11.409054964670556
O 6.234039032955836 -8.954592619915859 -0.2979625719581369
H 6.5521125879800435 -9.037376548942534 0.6135983923164257
H 5.325038400252578 -8.633399073538973 -0.2004202744102903
O -10.853505260133508 6.679427648142301 -3.5472191472090486
H -10.632550212336582 6.665336092672346 -2.6038487788926084
H -11.483018435733339 5.950122113605024 -3.651087060153875
O 5.8455496850689785 9.843043973870625 5.73988949414192
H 5.1834914160158245 9.511645539631985 6.365046500871047
H 5.7229431950015455 9.289702320805933 4.953923459330633
O -5.465936841065785 -10.924134632485956 -5.241121448418964
H -6.211520691122793 -11.247945856805206 -4.713657354438114
H -4.714532356756834 -11.45317149990229 -4.933756456634417
O 5.944895425689585 -12.00128185517663 7.215044471885708
H 5.990909705772599 -11.856030762441183 6.258095067273531
H 5.21750345410186 -11.429896181720903 7.503802633916268
O 1.7201729565336408 -0.1453436951681478 -10.49592309800845
H 2.1115079277505715 -0.6358836264013231 -11.234296223920003
H 2.439188380280148 -0.08260762396526483 -9.849360687962323
O -10.338206389071917 2.4598455751316983 -9.02771896616386
H -10.595556528784389 2.628716566988102 -9.946533882564005
H -9.818391557647104 1.6435278863541436 -9.07650335218711
O -6.846547746751497 -3.659008521269403 0.6373761105371689
H -6.1243959048711 -3.5554670939180726 -0.0003881460583223806
H -7.645311462431131 -3.486955985556542 0.11647650814872623
O -6.925329015978075 1.4985388700251145 -4.1553806674451605
H -6.880534275644308 1.4461302635482842 -5.121928196594964
H -6.610530919814645 0.6313071476468815 -3.8591151739215954
O 3.720404668785738 -11.272787695450084 -2.0598248529665577
H 2.837078591383338 -11.040100145071113 -2.383180542230753
H 4.283336268296859 -10.550378317892838 -2.376360237701351
O -3.170905536592734 -5.423104061935411 -4.091666769333723
H -3.1292625734284307 -5.445942886085296 -3.1238281419632568
H -2.320786311230499 -5.794635529979988 -4.371351619159653
O -2.0120311242020295 -7.63822751846185 1.3181986107572703
H -1.8677106219613515 -7.3005209954038905 0.42148614077756497
H -1.1262235390924564 -7.645505509028709 1.7109503100733314
O 1.6607162404795188 -12.075256399990769 0.4031245300029096
H 2.4408795242207932 -11.525659969044767 0.23502821626150716
H 0.9794090361027292 -11.43951938242748 0.6688704275517119
O -5.273179558004664 3.0310353938815293 -13.537296817955777
H -4.579103899209154 2.6869464712561317 -14.119387146078545
H -4.837120191870349 3.1123644766822927 -12.675786659108343
O -12.819703683318256 0.46369064299971186 -1.895343608352253
H -12.494141319440862 0.7876025716617105 -2.7486065025396353
H -13.74283406322184 0.2274938566266922 -2.0714212165428476
C -2.1836371680736266 3.080193265443505 10.959448472578895
O -1.8847356994433855 2.339877833112384 10.0675912923067
O -2.482538636703868 3.820508697774625 11.851305652851092