146

C -5.3564454929577465 1.0091607042253532 -0.0734429577464788
C -4.079135492957747 0.16955070422535368 -0.19788295774647868
C -4.333545492957747 -1.2789292957746463 0.3017270422535212
C -3.1403854929577464 -2.1745492957746464 0.7330270422535212
C -2.905235492957746 0.902300704225353 0.41966704225352136
C -2.7423854929577463 1.056130704225354 1.8024770422535212
C -1.8861754929577463 1.3499307042253532 -0.4326129577464788
C -1.5304554929577463 1.5279207042253526 2.3254170422535214
H -3.5237954929577464 0.7301007042253529 2.484817042253521
C -0.6776454929577462 1.8010507042253527 0.08546704225352131
H -1.9759254929577463 1.2426607042253535 -1.5115229577464788
C -0.4680254929577463 1.8513207042253539 1.4698070422535212
H -1.3950654929577464 1.5446707042253527 3.404047042253521
H 0.1461845070422536 1.9972507042253538 -0.6030529577464789
C -1.8679654929577463 -2.0866092957746467 -0.08765295774647863
C -0.6628654929577462 -1.814079295774647 0.5787970422535212
C -1.8438954929577462 -2.213429295774647 -1.4808029577464787
C 0.5129345070422537 -1.5763292957746469 -0.13022295774647863
H -0.6401854929577462 -1.7032692957746463 1.6609470422535213
C -0.6547954929577462 -1.9962392957746466 -2.1933129577464787
H -2.7578654929577464 -2.4351492957746466 -2.026182957746479
C 0.5308845070422537 -1.645769295774647 -1.5261029577464789
H 1.4044045070422537 -1.2610992957746463 0.41551704225352126
H -0.6795654929577464 -2.0467992957746466 -3.2793129577464786
C 1.7843245070422535 -1.2521692957746469 -2.2771629577464787
H 1.4981245070422535 -0.9384492957746469 -3.290282957746479
H 2.241984507042254 -0.38631929577464685 -1.8135029577464787
C 0.9385645070422537 2.0647807042253534 1.9815670422535212
H 1.0508945070422537 1.5807407042253532 2.9609770422535213
H 1.6053245070422537 1.5496207042253536 1.3096170422535214
C 3.9676945070422533 -1.6881692957746468 -3.314052957746479
H 4.795084507042254 -2.398849295774647 -3.4044129577464783
H 3.548404507042253 -1.4816192957746468 -4.303802957746479
H 4.307714507042253 -0.7637192957746466 -2.851282957746479
C 2.344694507042253 -3.565079295774647 -3.101282957746479
H 1.6334345070422536 -4.047909295774646 -2.4251929577464786
H 1.8561845070422536 -3.293109295774647 -4.041792957746479
H 3.1808045070422537 -4.243519295774647 -3.298122957746479
C 3.5156645070422536 -2.648489295774647 -1.1110629577464786
H 3.9311845070422535 -1.748249295774647 -0.6771029577464787
H 2.767184507042254 -3.1044092957746465 -0.45972295774647876
H 4.319224507042254 -3.371819295774647 -1.2863129577464787
C 2.963994507042253 3.381090704225353 2.401027042253521
H 3.3337945070422537 4.369820704225353 2.6912870422535216
H 3.120994507042253 2.671350704225353 3.2183370422535216
H 3.4665445070422534 3.0664207042253535 1.4881370422535212
C 1.2973745070422538 4.282440704225354 0.8488370422535213
H 1.7592145070422538 3.7367207042253527 0.02653704225352116
H 0.23311450704225378 4.4484607042253534 0.6605570422535213
H 1.7921845070422535 5.251370704225354 0.9736770422535213
C 0.7724845070422537 4.194670704225353 3.2772470422535216
H -0.2956954929577462 4.278220704225354 3.057857042253521
H 0.9298945070422537 3.612620704225354 4.190337042253521
H 1.2046345070422537 5.193640704225353 3.3918370422535213
N 2.876084507042253 -2.324759295774647 -2.4576629577464786
N 1.4527845070422536 3.504690704225353 2.1388470422535213
C -3.593905492957746 -3.637819295774647 0.8297870422535213
H -2.8952554929577463 -1.8680692957746468 1.7595270422535212
H -5.022615492957747 -1.2402792957746467 1.1579970422535213
H -4.898275492957747 -1.7933092957746464 -0.48931295774647876
H -3.883675492957746 0.07871070422535364 -1.2758929577464788
H -3.8751654929577466 -4.038529295774646 -0.1505529577464788
H -4.4603554929577465 -3.7321892957746465 1.4932570422535212
H -2.7953554929577464 -4.271929295774647 1.2313670422535212
H -5.648775492957746 1.147700704225353 0.9733970422535213
H -6.189795492957747 0.5254307042253537 -0.5943629577464788
H -5.2178854929577465 2.002970704225354 -0.5139729577464787
C 3.6710445070422537 1.0263707042253536 -0.27764295774647874
O 2.7356545070422538 1.6631507042253526 -0.7327029577464788
O 3.650814507042253 0.3883007042253537 0.7790570422535212
O 4.756604507042254 0.8696707042253538 -0.8334829577464786
O -5.382155154371409 -2.7006221680724436 8.275914334207016
H -5.170605905332561 -1.7567213062837692 8.333058321167135
H -4.516765253377904 -3.130444255477945 8.203008664078915
O -14.776378009060359 -0.9351234076920907 -3.8332411940531026
H -15.440996296503565 -0.6184107261175562 -4.463275293309585
H -15.27832951997279 -1.0817374628902927 -3.0174526529402304
O 2.1558451355628474 9.454481970060607 3.567222312311301
H 2.9189880283256584 9.394883054178337 4.16138411801011
H 2.3011281441064964 10.280417999782916 3.0817488665544257
O 2.8928582552887487 7.4434872921483315 -5.3071679259083595
H 3.110379740473864 6.923684503909591 -6.095493253246061
H 3.7368684124421074 7.52059053564037 -4.837419175228842
O -2.6846359586189656 6.889936540526744 -3.0111649949503447
H -2.995299561575134 6.85682884070003 -2.093908562478771
H -1.7198049693181496 6.928862037130505 -2.930245824792963
O -0.6677689288324204 -10.852622222676926 4.491380051325644
H -0.5172190989310108 -10.579767937224966 3.5738547685529234
H -1.3304700856016876 -10.22486696355926 4.816514570819941
O -8.715969972681341 -3.760866809121054 5.468644615185256
H -9.519641185177942 -4.301753638986711 5.445810947452573
H -8.449042330838859 -3.7774793444107377 6.400006844391304
O 8.713573927859299 4.749012213486563 2.097465130245233
H 7.811611776756171 4.997032954806157 2.350283932458794
H 8.631899766064306 4.483963973529571 1.1690036576515743
O 4.683904425028902 11.111309702500698 4.091358979587682
H 5.350971075233974 10.45658700498191 3.8357662753922988
H 4.15281940412203 11.229637989991375 3.2895428776990574
O 5.8288930771380745 1.7780889582356243 -1.6751627632222315
H 5.964261252184652 2.5773390230568305 -2.2060508380250647
H 6.727220908798683 1.481620260679323 -1.4652214320527435
O -7.02102964011951 9.092728250983859 5.214232597606539
H -7.512954424639679 8.781692281712044 4.439484903777167
H -7.692920720084713 9.531338778330388 5.757505205294421
O -0.6112878300317628 -4.0026815785085965 12.732536640780921
H 0.32804718228399576 -3.85955640240976 12.542451724218793
H -1.0449257445396871 -3.8807820200106344 11.874596898701547
O 3.253745369366623 9.614040133419422 12.616924919773947
H 3.207571372059009 9.520410829142191 13.580288232472327
H 3.87488692819022 10.345502409964492 12.482358779182434
O -8.142276043646516 3.129740577045374 2.1594093639320646
H -8.60033598338941 3.455279334453178 2.9488224154634683
H -7.211205640627991 3.0969973672882576 2.425863358343337
O 3.973504157151065 8.677945419736124 -6.762403966702852
H 3.8793919100496272 9.585798862471277 -6.436962161829154
H 3.332365118309686 8.174026332462025 -6.2389842205579535
O 9.14464760480443 2.6468440302982588 -0.3945471335879147
H 9.454648467879863 3.4541244139518534 0.04267729843823842
H 8.921217376877477 2.937497992201229 -1.2915204620534917
O -6.831541093433481 1.3798911840757775 8.379432295209433
H -7.668162781343319 1.3042470924922969 8.862453495186626
H -6.3067148361771554 0.6318099652470621 8.701757959763253
O 3.8748164673925043 -4.545743393758952 -7.461513442579619
H 4.210935939792762 -4.034906761241132 -6.709824017317279
H 4.472874541426024 -5.3063747890314055 -7.513747195165463
O 3.9231760190785434 4.588891823566934 -9.451320122112083
H 4.23386453070822 4.351715115715215 -10.337992110444837
H 4.544069757655661 4.140169025061743 -8.857939333918367
O 3.085905760913 9.779411261940297 8.229935877013205
H 2.410388908624888 9.76992994397057 7.535274489152673
H 3.9081914050757405 9.970416481623383 7.754199322019076
O 0.18212527057927774 -5.670651673390815 2.121933722318897
H 0.2918368870695569 -5.452019646383765 1.1843139940314213
H 0.031384197111244294 -4.812637438485504 2.5462574734448005
O 4.600778188733559 8.191479021930375 -2.100785188156957
H 5.370913593925742 8.544527599903976 -1.6304496524377303
H 4.1042111286779495 7.7194075026319195 -1.415561443796784
O -8.230470128519288 -7.58580976236567 -3.7711796374911453
H -8.303328614799216 -8.523485904543428 -3.5378934392975148
H -8.923246935899424 -7.159162675304863 -3.244876965486994
O 6.006978035439652 7.963991677811951 10.686224601805964
H 6.43296997606809 7.787351561698299 11.538454906828598
H 6.368014674528338 7.2833592173259465 10.098556376300861
C 3.287755339292336 -13.538125926808977 0.4616974988351821
O 3.5314479043486626 -12.595450077506293 -0.23457431172282917
O 3.04406277423601 -14.480801776111662 1.1579693093931946