146

C -5.3564454929577465 1.0091607042253532 -0.0734429577464788
C -4.079135492957747 0.16955070422535368 -0.19788295774647868
C -4.333545492957747 -1.2789292957746463 0.3017270422535212
C -3.1403854929577464 -2.1745492957746464 0.7330270422535212
C -2.905235492957746 0.902300704225353 0.41966704225352136
C -2.7423854929577463 1.056130704225354 1.8024770422535212
C -1.8861754929577463 1.3499307042253532 -0.4326129577464788
C -1.5304554929577463 1.5279207042253526 2.3254170422535214
H -3.5237954929577464 0.7301007042253529 2.484817042253521
C -0.6776454929577462 1.8010507042253527 0.08546704225352131
H -1.9759254929577463 1.2426607042253535 -1.5115229577464788
C -0.4680254929577463 1.8513207042253539 1.4698070422535212
H -1.3950654929577464 1.5446707042253527 3.404047042253521
H 0.1461845070422536 1.9972507042253538 -0.6030529577464789
C -1.8679654929577463 -2.0866092957746467 -0.08765295774647863
C -0.6628654929577462 -1.814079295774647 0.5787970422535212
C -1.8438954929577462 -2.213429295774647 -1.4808029577464787
C 0.5129345070422537 -1.5763292957746469 -0.13022295774647863
H -0.6401854929577462 -1.7032692957746463 1.6609470422535213
C -0.6547954929577462 -1.9962392957746466 -2.1933129577464787
H -2.7578654929577464 -2.4351492957746466 -2.026182957746479
C 0.5308845070422537 -1.645769295774647 -1.5261029577464789
H 1.4044045070422537 -1.2610992957746463 0.41551704225352126
H -0.6795654929577464 -2.0467992957746466 -3.2793129577464786
C 1.7843245070422535 -1.2521692957746469 -2.2771629577464787
H 1.4981245070422535 -0.9384492957746469 -3.290282957746479
H 2.241984507042254 -0.38631929577464685 -1.8135029577464787
C 0.9385645070422537 2.0647807042253534 1.9815670422535212
H 1.0508945070422537 1.5807407042253532 2.9609770422535213
H 1.6053245070422537 1.5496207042253536 1.3096170422535214
C 3.9676945070422533 -1.6881692957746468 -3.314052957746479
H 4.795084507042254 -2.398849295774647 -3.4044129577464783
H 3.548404507042253 -1.4816192957746468 -4.303802957746479
H 4.307714507042253 -0.7637192957746466 -2.851282957746479
C 2.344694507042253 -3.565079295774647 -3.101282957746479
H 1.6334345070422536 -4.047909295774646 -2.4251929577464786
H 1.8561845070422536 -3.293109295774647 -4.041792957746479
H 3.1808045070422537 -4.243519295774647 -3.298122957746479
C 3.5156645070422536 -2.648489295774647 -1.1110629577464786
H 3.9311845070422535 -1.748249295774647 -0.6771029577464787
H 2.767184507042254 -3.1044092957746465 -0.45972295774647876
H 4.319224507042254 -3.371819295774647 -1.2863129577464787
C 2.963994507042253 3.381090704225353 2.401027042253521
H 3.3337945070422537 4.369820704225353 2.6912870422535216
H 3.120994507042253 2.671350704225353 3.2183370422535216
H 3.4665445070422534 3.0664207042253535 1.4881370422535212
C 1.2973745070422538 4.282440704225354 0.8488370422535213
H 1.7592145070422538 3.7367207042253527 0.02653704225352116
H 0.23311450704225378 4.4484607042253534 0.6605570422535213
H 1.7921845070422535 5.251370704225354 0.9736770422535213
C 0.7724845070422537 4.194670704225353 3.2772470422535216
H -0.2956954929577462 4.278220704225354 3.057857042253521
H 0.9298945070422537 3.612620704225354 4.190337042253521
H 1.2046345070422537 5.193640704225353 3.3918370422535213
N 2.876084507042253 -2.324759295774647 -2.4576629577464786
N 1.4527845070422536 3.504690704225353 2.1388470422535213
C -3.593905492957746 -3.637819295774647 0.8297870422535213
H -2.8952554929577463 -1.8680692957746468 1.7595270422535212
H -5.022615492957747 -1.2402792957746467 1.1579970422535213
H -4.898275492957747 -1.7933092957746464 -0.48931295774647876
H -3.883675492957746 0.07871070422535364 -1.2758929577464788
H -3.8751654929577466 -4.038529295774646 -0.1505529577464788
H -4.4603554929577465 -3.7321892957746465 1.4932570422535212
H -2.7953554929577464 -4.271929295774647 1.2313670422535212
H -5.648775492957746 1.147700704225353 0.9733970422535213
H -6.189795492957747 0.5254307042253537 -0.5943629577464788
H -5.2178854929577465 2.002970704225354 -0.5139729577464787
C 3.6710445070422537 1.0263707042253536 -0.27764295774647874
O 2.7356545070422538 1.6631507042253526 -0.7327029577464788
O 3.650814507042253 0.3883007042253537 0.7790570422535212
O 4.756604507042254 0.8696707042253538 -0.8334829577464786
O 13.43929088337513 3.2061654013768535 3.0911366847563553
H 13.983742129336214 3.8462311190238383 3.573688313874394
H 13.833555848724993 3.1835702243482777 2.2062601174472665
O 3.4896972323061686 -10.832537081304313 3.4303301430956115
H 3.0465701471707813 -11.688085851216446 3.533490434008603
H 4.313481749492832 -10.933816519420633 3.930413625084748
O -1.2171318370930666 -8.845569697938686 4.973947645570261
H -1.9676706945463116 -8.305284588433567 4.684550373987029
H -0.4593385440521005 -8.462921767780688 4.506730532369207
O 9.134210330368195 -9.940435447254938 -8.409297190233522
H 10.054386068619173 -10.242734673892677 -8.379986011333804
H 8.891971162597901 -9.837114504096402 -7.476770025694716
O 8.299768608722198 -7.172871628367495 0.8224645183869194
H 7.900576268723619 -7.016355865476081 -0.04650938717813163
H 7.558789340105351 -7.473636657550941 1.3696866533561858
O 0.2963202815282191 -5.8069012197085055 9.161405728581839
H -0.35863540566489327 -5.155904020544977 9.455009290199605
H -0.11699296632122413 -6.2233080331371085 8.390212193091312
O -2.49822091204178 -5.36045474865082 -12.364677689265728
H -2.515658028146271 -5.174153013670281 -13.315443153207914
H -1.8657695022686565 -6.0897726182328835 -12.280638390813941
O -2.335347475603363 -3.6278550295642753 -6.310408286532464
H -2.013268149483481 -4.481395799267391 -5.983757985689532
H -2.8896001230927553 -3.861969468003267 -7.06998473216871
O -9.507851991973476 -7.736404453751846 -0.34968654288711876
H -9.37196693355541 -7.654468435634452 -1.3056097075472213
H -8.922968445250236 -7.062700374637291 0.02846156944037881
O 4.653924742710215 -4.412949582270049 -7.194857257586066
H 5.549101466158029 -4.122143621750494 -6.964514287162534
H 4.759873120738858 -5.353090325864969 -7.4043143360672925
O 0.40800552857945327 -9.234461244514788 12.100185798943297
H 1.0454809697239797 -9.5326210644173 12.766288749419644
H -0.43181652811659443 -9.621047297786593 12.390378977365106
O 2.6758839709619604 12.823059615457865 -0.7775867610064693
H 2.793314683690734 13.010521566874417 0.16583011470601855
H 1.777083266407475 13.131432242221656 -0.9673907674319389
O 6.01761871484482 -3.658282911971182 -13.095869691766866
H 5.606042059524356 -4.066672244961691 -13.872265316686782
H 6.866468977286337 -3.3286207424952163 -13.427137001155172
O 9.490292352710584 6.112179375958474 -0.7172105151096944
H 9.917371466526292 6.391545746527914 -1.5409369371924453
H 9.040193110819178 5.2876282576427585 -0.954882705390937
O 5.743905791941785 -7.471029705845714 6.154977514922645
H 5.748374766740084 -7.490249580490842 7.123779858841608
H 6.613781481408022 -7.820638448708652 5.909922508670098
O -2.3832524090555585 2.1695695665145576 8.201291198354491
H -2.039147373303515 1.590028042767131 7.505093881839556
H -1.5903501323825724 2.4627732423415565 8.674893909947585
O -12.90036788466342 2.043416190374357 5.269116859887644
H -12.792913685341746 2.811392128036583 4.688054117044873
H -12.689097246881762 2.3855769841521903 6.150736195606102
O 2.16336117764509 3.9401541468264423 -3.7246876632036434
H 2.123444291754794 4.07262126129055 -2.765611825375177
H 1.2987370159642508 3.562168964736254 -3.9449470681287298
O -5.3704981050568765 -0.9908053265592981 -3.5456298886716593
H -5.3820471002831 -1.954298691754845 -3.4430895900889746
H -4.99519640522395 -0.6711255740362886 -2.711414428356194
O 0.5147222458086643 1.1109051384028232 -3.104688533663186
H 0.7518781608568132 0.8994217732774282 -2.18926556304637
H 0.9627724071300902 0.4281319825574568 -3.6262571436243327
O -7.608314703467244 -2.6524190944159725 9.578816002792617
H -7.614815561943684 -3.338524655843161 10.26305591270562
H -7.563258488819581 -3.1501819567467453 8.748656973024286
O 7.1281241550975585 -1.1251153142314414 3.8773055931176645
H 6.320011381580423 -0.7713648996983551 4.27828158541161
H 7.7707650430535455 -1.1202371608347268 4.602530273507527
O 13.459731575512814 4.024788103665564 -1.5192607641471065
H 14.096445023270338 3.8994393337776527 -2.2388794327712036
H 12.72446192636535 3.438322540346929 -1.7524959038321926
O 5.869636063990063 10.428422582917205 7.114209116574915
H 5.900530295676048 10.468499235919376 6.146527988706504
H 6.23183724472695 11.282030269018852 7.395502854864618
C 5.661289930396266 3.2945544578631463 10.660519233512556
O 6.233871957654294 3.07065568853701 9.633466449837185
O 5.088707903138237 3.5184532271892817 11.687572017187927