146

C -5.3564454929577465 1.0091607042253532 -0.0734429577464788
C -4.079135492957747 0.16955070422535368 -0.19788295774647868
C -4.333545492957747 -1.2789292957746463 0.3017270422535212
C -3.1403854929577464 -2.1745492957746464 0.7330270422535212
C -2.905235492957746 0.902300704225353 0.41966704225352136
C -2.7423854929577463 1.056130704225354 1.8024770422535212
C -1.8861754929577463 1.3499307042253532 -0.4326129577464788
C -1.5304554929577463 1.5279207042253526 2.3254170422535214
H -3.5237954929577464 0.7301007042253529 2.484817042253521
C -0.6776454929577462 1.8010507042253527 0.08546704225352131
H -1.9759254929577463 1.2426607042253535 -1.5115229577464788
C -0.4680254929577463 1.8513207042253539 1.4698070422535212
H -1.3950654929577464 1.5446707042253527 3.404047042253521
H 0.1461845070422536 1.9972507042253538 -0.6030529577464789
C -1.8679654929577463 -2.0866092957746467 -0.08765295774647863
C -0.6628654929577462 -1.814079295774647 0.5787970422535212
C -1.8438954929577462 -2.213429295774647 -1.4808029577464787
C 0.5129345070422537 -1.5763292957746469 -0.13022295774647863
H -0.6401854929577462 -1.7032692957746463 1.6609470422535213
C -0.6547954929577462 -1.9962392957746466 -2.1933129577464787
H -2.7578654929577464 -2.4351492957746466 -2.026182957746479
C 0.5308845070422537 -1.645769295774647 -1.5261029577464789
H 1.4044045070422537 -1.2610992957746463 0.41551704225352126
H -0.6795654929577464 -2.0467992957746466 -3.2793129577464786
C 1.7843245070422535 -1.2521692957746469 -2.2771629577464787
H 1.4981245070422535 -0.9384492957746469 -3.290282957746479
H 2.241984507042254 -0.38631929577464685 -1.8135029577464787
C 0.9385645070422537 2.0647807042253534 1.9815670422535212
H 1.0508945070422537 1.5807407042253532 2.9609770422535213
H 1.6053245070422537 1.5496207042253536 1.3096170422535214
C 3.9676945070422533 -1.6881692957746468 -3.314052957746479
H 4.795084507042254 -2.398849295774647 -3.4044129577464783
H 3.548404507042253 -1.4816192957746468 -4.303802957746479
H 4.307714507042253 -0.7637192957746466 -2.851282957746479
C 2.344694507042253 -3.565079295774647 -3.101282957746479
H 1.6334345070422536 -4.047909295774646 -2.4251929577464786
H 1.8561845070422536 -3.293109295774647 -4.041792957746479
H 3.1808045070422537 -4.243519295774647 -3.298122957746479
C 3.5156645070422536 -2.648489295774647 -1.1110629577464786
H 3.9311845070422535 -1.748249295774647 -0.6771029577464787
H 2.767184507042254 -3.1044092957746465 -0.45972295774647876
H 4.319224507042254 -3.371819295774647 -1.2863129577464787
C 2.963994507042253 3.381090704225353 2.401027042253521
H 3.3337945070422537 4.369820704225353 2.6912870422535216
H 3.120994507042253 2.671350704225353 3.2183370422535216
H 3.4665445070422534 3.0664207042253535 1.4881370422535212
C 1.2973745070422538 4.282440704225354 0.8488370422535213
H 1.7592145070422538 3.7367207042253527 0.02653704225352116
H 0.23311450704225378 4.4484607042253534 0.6605570422535213
H 1.7921845070422535 5.251370704225354 0.9736770422535213
C 0.7724845070422537 4.194670704225353 3.2772470422535216
H -0.2956954929577462 4.278220704225354 3.057857042253521
H 0.9298945070422537 3.612620704225354 4.190337042253521
H 1.2046345070422537 5.193640704225353 3.3918370422535213
N 2.876084507042253 -2.324759295774647 -2.4576629577464786
N 1.4527845070422536 3.504690704225353 2.1388470422535213
C -3.593905492957746 -3.637819295774647 0.8297870422535213
H -2.8952554929577463 -1.8680692957746468 1.7595270422535212
H -5.022615492957747 -1.2402792957746467 1.1579970422535213
H -4.898275492957747 -1.7933092957746464 -0.48931295774647876
H -3.883675492957746 0.07871070422535364 -1.2758929577464788
H -3.8751654929577466 -4.038529295774646 -0.1505529577464788
H -4.4603554929577465 -3.7321892957746465 1.4932570422535212
H -2.7953554929577464 -4.271929295774647 1.2313670422535212
H -5.648775492957746 1.147700704225353 0.9733970422535213
H -6.189795492957747 0.5254307042253537 -0.5943629577464788
H -5.2178854929577465 2.002970704225354 -0.5139729577464787
C 3.6710445070422537 1.0263707042253536 -0.27764295774647874
O 2.7356545070422538 1.6631507042253526 -0.7327029577464788
O 3.650814507042253 0.3883007042253537 0.7790570422535212
O 4.756604507042254 0.8696707042253538 -0.8334829577464786
O -5.519364853727636 -11.382435607496038 -7.000837129621838
H -4.827974419987271 -11.810650977032948 -6.47398020186566
H -5.268125609113637 -10.446572063921824 -7.000374447765271
O -0.45856302923607656 -0.9297053575882126 -12.370232670167063
H 0.29073623337013166 -0.4652603585817463 -11.967978005985678
H -1.0077048099466455 -0.21828205816011081 -12.732561440773065
O 5.139852575402571 -0.3957317834270184 5.273064061410688
H 5.825220501587052 0.25056676084422236 5.046047863022863
H 5.627585217451544 -1.2261022930386902 5.380598385917712
O -10.560534811392106 -4.739067741869878 -9.081359885218728
H -10.596393231978332 -5.622904077518134 -9.476979478212964
H -9.61850899969777 -4.601537228553075 -8.900709193804474
O -2.164493802136551 -3.893154371061812 5.156394121132857
H -2.715411795626541 -4.5257987867000775 4.671401580251369
H -1.7445907764207993 -4.428968155486383 5.845993266807628
O 4.403025936742493 -0.022023331708649785 12.353214433340122
H 4.160657819126718 -0.3100814034105812 13.246101660144689
H 5.371798586203001 -0.04291811263619261 12.35542940224705
O -0.24048148646870948 9.77876746921713 2.4118228074397527
H -0.4926038861888178 8.943158495966674 2.832725760960745
H -0.5294418983498863 9.67446180594186 1.4928102105325258
O 7.311651235177186 0.34839018174041225 -6.4364303117729165
H 6.756498268797786 0.05205013614456644 -7.173285194498414
H 6.7623333103018375 1.0014775789707562 -5.977422018504117
O 10.89142030765465 -8.939980650608947 5.669727133297948
H 11.259982378051856 -8.941805882691408 6.565900122007365
H 10.459978992530171 -8.07547986753089 5.5958439013634615
O -9.994260095474415 -6.066847004502622 10.095149174444565
H -10.056262351378841 -6.595242627501348 10.905038761214609
H -10.896293232719916 -5.739972804799198 9.959313166040001
O 7.113668586951907 2.369713592078724 -2.255543807447474
H 7.311767664986584 2.4052102717678174 -3.203417268365577
H 6.8097014297964105 1.4606008032877842 -2.1138404238337962
O -8.71623090266307 1.6474678524281594 3.3679968337508135
H -8.116924926118616 1.9811358043355995 2.6835515099681224
H -8.896752330492951 0.734976514868646 3.0964576703266227
O 6.672269462638792 5.781800566490954 2.6522382256511277
H 6.77952179785552 5.759687828307207 3.615033801202125
H 6.72107566142574 6.724383764289167 2.432882773271971
O 1.0605928388961945 9.230715508307645 6.950528615825149
H 0.28512132087297193 9.279245305317355 6.371515541329456
H 1.661730410338158 8.628690669507295 6.486673403535506
O 1.3881017364468498 -9.00564244046398 -1.3378265170197752
H 1.182770189456516 -8.760370512189935 -0.423141875238091
H 0.7292346309806479 -9.683119813573688 -1.552023833900632
O 2.4171058018058873 -2.0249178412399003 8.929055221706419
H 3.1050493854133387 -1.347681820204821 8.845076923998546
H 1.7403747016682596 -1.7514122879889507 8.291723538242142
O 1.8337817909405196 -8.395100919672386 -11.15581438220299
H 1.3140677335085156 -8.984782901060298 -11.722506376353241
H 1.581996600062719 -8.652983024015002 -10.256335098275642
O 12.104303879044458 -5.971711486937426 8.39517054351725
H 12.581239550634415 -6.812500852904188 8.462794238641443
H 12.290396566135295 -5.668904599543902 7.493705377768534
O -0.27319612794158044 7.545115565474375 8.355564793687265
H 0.6461637379775618 7.8420794186366125 8.28101773638669
H -0.4111390213036592 7.008813680935036 7.560383059043888
O 6.912699900497009 -8.302795428748675 -3.5554581262181433
H 6.173107349199054 -8.249543136471488 -2.931651739322492
H 6.509230205737663 -8.642326546899964 -4.368411242650901
O 1.5626568547721127 11.544352283589802 3.832689359111777
H 0.7282987704388162 11.114084171878172 4.072862829861114
H 1.7976557493044434 11.141620441043624 2.983251588072637
O 3.459865945428577 -4.282731700070204 6.297267376915583
H 2.7275425694214084 -4.1449185203275185 5.677850427403645
H 3.8382290230936076 -3.398178978243438 6.412895263122618
O -5.363911515416726 -4.019232791990399 9.729238157075766
H -5.598065980982583 -4.105059651626369 8.792876691977701
H -5.561978210062348 -4.891897608261651 10.100974148357773
O -0.9058247967430046 2.063684152193278 7.107594900871973
H -1.6235550480271888 1.8814230205157394 6.482605682428034
H -0.23238138291285326 2.504966440828792 6.568423449100467
C 1.997521249704437 -12.16244354083262 -3.6974622297307222
O 1.6903840556068506 -11.044440853098301 -3.995044136977623
O 2.304658443802023 -13.280446228566937 -3.3998803224838197