146

C -5.3564454929577465 1.0091607042253532 -0.0734429577464788
C -4.079135492957747 0.16955070422535368 -0.19788295774647868
C -4.333545492957747 -1.2789292957746463 0.3017270422535212
C -3.1403854929577464 -2.1745492957746464 0.7330270422535212
C -2.905235492957746 0.902300704225353 0.41966704225352136
C -2.7423854929577463 1.056130704225354 1.8024770422535212
C -1.8861754929577463 1.3499307042253532 -0.4326129577464788
C -1.5304554929577463 1.5279207042253526 2.3254170422535214
H -3.5237954929577464 0.7301007042253529 2.484817042253521
C -0.6776454929577462 1.8010507042253527 0.08546704225352131
H -1.9759254929577463 1.2426607042253535 -1.5115229577464788
C -0.4680254929577463 1.8513207042253539 1.4698070422535212
H -1.3950654929577464 1.5446707042253527 3.404047042253521
H 0.1461845070422536 1.9972507042253538 -0.6030529577464789
C -1.8679654929577463 -2.0866092957746467 -0.08765295774647863
C -0.6628654929577462 -1.814079295774647 0.5787970422535212
C -1.8438954929577462 -2.213429295774647 -1.4808029577464787
C 0.5129345070422537 -1.5763292957746469 -0.13022295774647863
H -0.6401854929577462 -1.7032692957746463 1.6609470422535213
C -0.6547954929577462 -1.9962392957746466 -2.1933129577464787
H -2.7578654929577464 -2.4351492957746466 -2.026182957746479
C 0.5308845070422537 -1.645769295774647 -1.5261029577464789
H 1.4044045070422537 -1.2610992957746463 0.41551704225352126
H -0.6795654929577464 -2.0467992957746466 -3.2793129577464786
C 1.7843245070422535 -1.2521692957746469 -2.2771629577464787
H 1.4981245070422535 -0.9384492957746469 -3.290282957746479
H 2.241984507042254 -0.38631929577464685 -1.8135029577464787
C 0.9385645070422537 2.0647807042253534 1.9815670422535212
H 1.0508945070422537 1.5807407042253532 2.9609770422535213
H 1.6053245070422537 1.5496207042253536 1.3096170422535214
C 3.9676945070422533 -1.6881692957746468 -3.314052957746479
H 4.795084507042254 -2.398849295774647 -3.4044129577464783
H 3.548404507042253 -1.4816192957746468 -4.303802957746479
H 4.307714507042253 -0.7637192957746466 -2.851282957746479
C 2.344694507042253 -3.565079295774647 -3.101282957746479
H 1.6334345070422536 -4.047909295774646 -2.4251929577464786
H 1.8561845070422536 -3.293109295774647 -4.041792957746479
H 3.1808045070422537 -4.243519295774647 -3.298122957746479
C 3.5156645070422536 -2.648489295774647 -1.1110629577464786
H 3.9311845070422535 -1.748249295774647 -0.6771029577464787
H 2.767184507042254 -3.1044092957746465 -0.45972295774647876
H 4.319224507042254 -3.371819295774647 -1.2863129577464787
C 2.963994507042253 3.381090704225353 2.401027042253521
H 3.3337945070422537 4.369820704225353 2.6912870422535216
H 3.120994507042253 2.671350704225353 3.2183370422535216
H 3.4665445070422534 3.0664207042253535 1.4881370422535212
C 1.2973745070422538 4.282440704225354 0.8488370422535213
H 1.7592145070422538 3.7367207042253527 0.02653704225352116
H 0.23311450704225378 4.4484607042253534 0.6605570422535213
H 1.7921845070422535 5.251370704225354 0.9736770422535213
C 0.7724845070422537 4.194670704225353 3.2772470422535216
H -0.2956954929577462 4.278220704225354 3.057857042253521
H 0.9298945070422537 3.612620704225354 4.190337042253521
H 1.2046345070422537 5.193640704225353 3.3918370422535213
N 2.876084507042253 -2.324759295774647 -2.4576629577464786
N 1.4527845070422536 3.504690704225353 2.1388470422535213
C -3.593905492957746 -3.637819295774647 0.8297870422535213
H -2.8952554929577463 -1.8680692957746468 1.7595270422535212
H -5.022615492957747 -1.2402792957746467 1.1579970422535213
H -4.898275492957747 -1.7933092957746464 -0.48931295774647876
H -3.883675492957746 0.07871070422535364 -1.2758929577464788
H -3.8751654929577466 -4.038529295774646 -0.1505529577464788
H -4.4603554929577465 -3.7321892957746465 1.4932570422535212
H -2.7953554929577464 -4.271929295774647 1.2313670422535212
H -5.648775492957746 1.147700704225353 0.9733970422535213
H -6.189795492957747 0.5254307042253537 -0.5943629577464788
H -5.2178854929577465 2.002970704225354 -0.5139729577464787
C 3.6710445070422537 1.0263707042253536 -0.27764295774647874
O 2.7356545070422538 1.6631507042253526 -0.7327029577464788
O 3.650814507042253 0.3883007042253537 0.7790570422535212
O 4.756604507042254 0.8696707042253538 -0.8334829577464786
O -1.214287254856271 -3.1924506098528753 9.148442756892637
H -1.18472293064348 -2.2690135047515003 9.440602337525954
H -0.37674190177839767 -3.3157061885168075 8.676968698045409
O -3.334139295474454 7.193152008897398 -0.5723079516702853
H -3.9789322224294503 7.447426676491567 0.10485807794777313
H -3.598735999496014 6.29502349888449 -0.8219390956065359
O 9.672276443123273 -9.370329078667126 -0.3128020702929316
H 9.71645039636578 -9.663813391411692 0.6096311126139833
H 10.352050601860121 -8.682343273594391 -0.37233835697621176
O 10.67821043414963 6.151866138532713 -3.955118668764563
H 11.357068551844549 5.955765175202422 -4.618189875438965
H 10.008032964128596 6.650160979314654 -4.446571977458588
O -11.552241404403006 -0.6815827099215497 -2.9699501567438458
H -12.26338878522797 -0.0242826154386373 -3.004494989042611
H -11.832572758379584 -1.2932858928552626 -2.2726729577286893
O -3.973199366151528 6.452421133428539 4.827180420906582
H -3.2307612907532377 6.531869125192705 5.444789583487195
H -3.9428614427321302 5.5266568617263125 4.542571798510413
O 4.659763942893454 -9.939745901172362 2.080506771429851
H 4.095471267360954 -10.236561864080999 1.3508209367016488
H 5.342274785619418 -9.406131847504284 1.6464596131746516
O -6.452018406311131 -7.619477332190027 1.8492249543292578
H -6.607970830345913 -8.104926870837188 1.0252195273052997
H -7.328884259573014 -7.56427966704067 2.257907517506805
O -0.2634091530756251 1.5002926328520512 -4.365349320519772
H -1.0704119272749315 1.9992169083114428 -4.168401493184851
H -0.4295922336660041 1.123085738967148 -5.242310030717894
O -6.797507355547927 -4.758695875326586 -6.191915614302018
H -6.755171451384127 -4.701439217142061 -7.1582989250085785
H -6.493133994984561 -3.8888789881152803 -5.892353626724491
O 7.624253798351055 1.298522490861254 3.0871422496855643
H 8.227880960115712 1.9691243558681402 3.440546756064915
H 6.776505351934978 1.5000031824038143 3.5110408777025213
O 6.512260749614672 -1.7680867571115644 -4.137890075841652
H 6.030111528506801 -1.7245501214912111 -3.2984831144433464
H 7.444288019799913 -1.7414125211043372 -3.8741182102750633
O 1.2637040597270164 6.335916836017418 -8.182941342726632
H 2.212204523446309 6.157606177501635 -8.269656602536866
H 0.8423665471153068 5.534499724868725 -8.528147453223337
O 9.103400848645364 -6.881118870749849 -2.8561965640552383
H 9.672303121538384 -7.624705657861454 -2.6064041485775107
H 9.449368663196157 -6.137877948899055 -2.3396105134486325
O 7.575626623731938 -7.070518194525774 -5.855660876116988
H 7.6811805416324335 -7.254302780906698 -4.910119257189164
H 7.991654262800097 -7.830459959113344 -6.28967868942297
O 8.66826874416097 6.364568205729848 -6.8909535889120015
H 9.302573715870718 6.626325500721087 -6.206769638294064
H 9.118605674760168 6.578580054492708 -7.7218311501853805
O 6.325679216077226 -2.485880382482956 8.664323050088953
H 6.755831509568177 -3.1916543531362853 9.170109036107457
H 7.025881559666667 -1.8279797139950082 8.538444804410974
O -0.9672960232778474 9.356504353496515 0.4893577336208308
H -1.1623725348476013 8.96023521311981 -0.37312895028732407
H -1.821085029674998 9.351788189314986 0.9475978831612002
O -7.921540757262003 9.198256012437335 4.452454671310255
H -8.703742943000906 9.547794296057466 4.905168803858789
H -7.529066735328173 8.591516045832115 5.098049512778943
O 3.710055630484594 -3.106804549527718 8.186983537138788
H 4.268325133084454 -3.89881650463101 8.182558343316252
H 2.989007496585581 -3.3252856945650047 7.5776252499514
O 4.955344476877422 5.024485299270728 -9.411360693824419
H 4.348618416509952 5.350532922630213 -10.092935188558927
H 5.51652822646288 4.389844353685847 -9.881749483750724
O -1.9380753075459074 0.0940885753695424 11.754856998387218
H -1.7180092328375656 -0.8482366372407414 11.704245998185208
H -1.075510980629888 0.5346286768909592 11.784338266735386
O 4.762718225452282 -0.8177946052992029 2.714294894419679
H 4.435451582764277 -1.366535057098885 3.4428193058448584
H 4.863709464419021 -1.4408381256843192 1.9790537872595286
O 3.6733374111910986 -5.0109016221323905 4.671921288445675
H 3.1847734806216126 -5.519422960858657 5.33651040264071
H 3.760050781556779 -5.623187193865254 3.9258990941728875
C 8.954484005922533 -3.1363835924369816 -12.073859537451202
O 9.25588356080505 -3.1117699983072624 -10.915683930472433
O 8.653084451040018 -3.1609971865667 -13.23203514442997