146

C -5.3564454929577465 1.0091607042253532 -0.0734429577464788
C -4.079135492957747 0.16955070422535368 -0.19788295774647868
C -4.333545492957747 -1.2789292957746463 0.3017270422535212
C -3.1403854929577464 -2.1745492957746464 0.7330270422535212
C -2.905235492957746 0.902300704225353 0.41966704225352136
C -2.7423854929577463 1.056130704225354 1.8024770422535212
C -1.8861754929577463 1.3499307042253532 -0.4326129577464788
C -1.5304554929577463 1.5279207042253526 2.3254170422535214
H -3.5237954929577464 0.7301007042253529 2.484817042253521
C -0.6776454929577462 1.8010507042253527 0.08546704225352131
H -1.9759254929577463 1.2426607042253535 -1.5115229577464788
C -0.4680254929577463 1.8513207042253539 1.4698070422535212
H -1.3950654929577464 1.5446707042253527 3.404047042253521
H 0.1461845070422536 1.9972507042253538 -0.6030529577464789
C -1.8679654929577463 -2.0866092957746467 -0.08765295774647863
C -0.6628654929577462 -1.814079295774647 0.5787970422535212
C -1.8438954929577462 -2.213429295774647 -1.4808029577464787
C 0.5129345070422537 -1.5763292957746469 -0.13022295774647863
H -0.6401854929577462 -1.7032692957746463 1.6609470422535213
C -0.6547954929577462 -1.9962392957746466 -2.1933129577464787
H -2.7578654929577464 -2.4351492957746466 -2.026182957746479
C 0.5308845070422537 -1.645769295774647 -1.5261029577464789
H 1.4044045070422537 -1.2610992957746463 0.41551704225352126
H -0.6795654929577464 -2.0467992957746466 -3.2793129577464786
C 1.7843245070422535 -1.2521692957746469 -2.2771629577464787
H 1.4981245070422535 -0.9384492957746469 -3.290282957746479
H 2.241984507042254 -0.38631929577464685 -1.8135029577464787
C 0.9385645070422537 2.0647807042253534 1.9815670422535212
H 1.0508945070422537 1.5807407042253532 2.9609770422535213
H 1.6053245070422537 1.5496207042253536 1.3096170422535214
C 3.9676945070422533 -1.6881692957746468 -3.314052957746479
H 4.795084507042254 -2.398849295774647 -3.4044129577464783
H 3.548404507042253 -1.4816192957746468 -4.303802957746479
H 4.307714507042253 -0.7637192957746466 -2.851282957746479
C 2.344694507042253 -3.565079295774647 -3.101282957746479
H 1.6334345070422536 -4.047909295774646 -2.4251929577464786
H 1.8561845070422536 -3.293109295774647 -4.041792957746479
H 3.1808045070422537 -4.243519295774647 -3.298122957746479
C 3.5156645070422536 -2.648489295774647 -1.1110629577464786
H 3.9311845070422535 -1.748249295774647 -0.6771029577464787
H 2.767184507042254 -3.1044092957746465 -0.45972295774647876
H 4.319224507042254 -3.371819295774647 -1.2863129577464787
C 2.963994507042253 3.381090704225353 2.401027042253521
H 3.3337945070422537 4.369820704225353 2.6912870422535216
H 3.120994507042253 2.671350704225353 3.2183370422535216
H 3.4665445070422534 3.0664207042253535 1.4881370422535212
C 1.2973745070422538 4.282440704225354 0.8488370422535213
H 1.7592145070422538 3.7367207042253527 0.02653704225352116
H 0.23311450704225378 4.4484607042253534 0.6605570422535213
H 1.7921845070422535 5.251370704225354 0.9736770422535213
C 0.7724845070422537 4.194670704225353 3.2772470422535216
H -0.2956954929577462 4.278220704225354 3.057857042253521
H 0.9298945070422537 3.612620704225354 4.190337042253521
H 1.2046345070422537 5.193640704225353 3.3918370422535213
N 2.876084507042253 -2.324759295774647 -2.4576629577464786
N 1.4527845070422536 3.504690704225353 2.1388470422535213
C -3.593905492957746 -3.637819295774647 0.8297870422535213
H -2.8952554929577463 -1.8680692957746468 1.7595270422535212
H -5.022615492957747 -1.2402792957746467 1.1579970422535213
H -4.898275492957747 -1.7933092957746464 -0.48931295774647876
H -3.883675492957746 0.07871070422535364 -1.2758929577464788
H -3.8751654929577466 -4.038529295774646 -0.1505529577464788
H -4.4603554929577465 -3.7321892957746465 1.4932570422535212
H -2.7953554929577464 -4.271929295774647 1.2313670422535212
H -5.648775492957746 1.147700704225353 0.9733970422535213
H -6.189795492957747 0.5254307042253537 -0.5943629577464788
H -5.2178854929577465 2.002970704225354 -0.5139729577464787
C 3.6710445070422537 1.0263707042253536 -0.27764295774647874
O 2.7356545070422538 1.6631507042253526 -0.7327029577464788
O 3.650814507042253 0.3883007042253537 0.7790570422535212
O 4.756604507042254 0.8696707042253538 -0.8334829577464786
O -7.711439290638123 0.8576859389485438 -7.969193492464925
H -8.335432224876772 0.4002058841096954 -7.385830677104808
H -7.606891660490826 1.7305666569790792 -7.561626333065295
O 8.333494237918751 1.5625303281922585 1.9192674791978603
H 7.944831767548083 2.130329145593998 1.2369820961047182
H 8.894593622236616 2.1634429999830505 2.432135284874298
O -2.3140014509821625 -7.721749835834445 1.7872802565149615
H -2.0616356486510643 -7.59751722201028 2.714558594650927
H -3.267882574771728 -7.88812587232716 1.824586562401907
O 2.1793374205071134 6.363365102349606 -7.745627501382042
H 1.7590680897513677 5.502934782332728 -7.597301135142681
H 1.7910767293148488 6.673173549310855 -8.577633694968583
O -1.656249542209195 -0.9520699291271706 3.9022969928433304
H -2.3014560759167613 -1.3581455242636944 4.5004428753800125
H -2.1426631458719605 -0.21901610315485476 3.496100194851088
O -9.054673840201314 8.898385194727254 2.992678939636396
H -9.390585765702838 9.006714309270567 2.0902403887377097
H -8.185272825893417 8.48810329984249 2.8711364065454337
O -4.129213852073038 -1.372471719392051 4.685698287539146
H -4.132445159384679 -0.45959597518876194 4.360713993767354
H -4.273662954617597 -1.2818506240502205 5.639576800848423
O 1.2203416894928394 -4.768520846073376 -6.345099620965735
H 0.4962024373196035 -4.246369173170766 -5.968340638528695
H 1.3663302938034962 -4.371407754661069 -7.2168509985616565
O -4.310009763358602 -7.713324728546029 -2.186526254871345
H -4.177160119659694 -7.492104675558099 -3.1205391119697325
H -3.413080358459148 -7.862175451181317 -1.851379944586325
O -1.394671635350322 10.177062431467837 1.6528395099732114
H -1.5549925348155624 10.1817561478704 0.6972022696351267
H -2.0218482961632525 9.52096108878733 1.99216591413943
O 3.684102872312957 6.2233375062816405 -2.0390766192806313
H 3.649672940620092 6.186595840573993 -1.0713824595872636
H 3.0742361807567518 5.5253573697511325 -2.321651019818153
O -11.145612852479049 -4.521050640634567 2.202060570114368
H -12.052968816105313 -4.775993031679829 1.9769452898245146
H -10.799986520649298 -5.287249631270992 2.6841845062486733
O 5.128625173851769 2.315432099872576 -7.0370458952919375
H 4.818510868672423 3.085684361347206 -6.5375382093487175
H 5.129097464984784 1.598450251098381 -6.385203314779261
O 2.33930842862364 -2.7593059486987515 -11.890583551441214
H 2.884479943354741 -3.1479162305964232 -12.591110085720404
H 2.4820576451918726 -1.8055231107807348 -11.984832708266142
O -13.434946589101584 3.5028612993337767 -3.71145236454522
H -14.19490103585812 2.9848314349229064 -4.016545228003913
H -12.86555134709078 3.5656594511932562 -4.492994042767494
O -10.694324472669408 -0.7832016953559302 -9.59214539486271
H -10.323571460785102 -1.5916475626927156 -9.20753540972869
H -11.212856169874401 -0.3970709118947613 -8.870349134580506
O -9.771643438019971 1.2525274131846102 -4.662620124024379
H -10.187717903534367 1.8572263385370484 -4.030015503645648
H -9.338984129327013 1.8411566821812095 -5.299238887949746
O 1.1912306176033474 -1.9115976505606098 -8.306903462295129
H 1.3403304498157935 -1.7885116585166838 -7.357384407459056
H 0.30896074705282417 -1.5394536365092222 -8.455465411072339
O 2.083134507775439 4.243098209028436 8.193010616791728
H 2.119944078437034 4.4516783884848214 9.1385827828085
H 1.517302641816543 4.936827603255699 7.822152461494385
O 9.26755303354822 5.508534841417187 -4.290072357842221
H 9.071554713386172 5.794027790635248 -3.385060870986707
H 8.528442826090695 5.857217049832487 -4.810743811896238
O -3.867036329890615 -10.146981459641665 -4.46113548138592
H -4.752640055236232 -10.266788270699571 -4.835728229017399
H -3.967081782339216 -9.393487657311034 -3.8601363619242663
O -7.227208464271476 -9.136769491588758 -4.903196543457614
H -7.430257022454063 -9.123389933466477 -5.850592779118505
H -8.09199023471658 -9.03910633323385 -4.477078788246713
O -1.0626716326369645 8.255878987323463 -5.952324541972025
H -1.932322736188667 8.268498555109737 -6.37954235702682
H -1.2672294158962991 8.204433928133385 -5.006559527027534
O 10.922209235525765 0.2479109694812464 -2.4550770415936407
H 10.361397803436002 -0.03486703915437522 -1.7171783409785053
H 10.716338266162143 1.1891573944751062 -2.5581995692467214
C 11.770801760079042 10.572405210708881 -2.750896810605979
O 11.009179547218832 9.864564976988607 -3.343949983352526
O 12.532423972939252 11.280245444429156 -2.1578436378594317