146

C -5.3564454929577465 1.0091607042253532 -0.0734429577464788
C -4.079135492957747 0.16955070422535368 -0.19788295774647868
C -4.333545492957747 -1.2789292957746463 0.3017270422535212
C -3.1403854929577464 -2.1745492957746464 0.7330270422535212
C -2.905235492957746 0.902300704225353 0.41966704225352136
C -2.7423854929577463 1.056130704225354 1.8024770422535212
C -1.8861754929577463 1.3499307042253532 -0.4326129577464788
C -1.5304554929577463 1.5279207042253526 2.3254170422535214
H -3.5237954929577464 0.7301007042253529 2.484817042253521
C -0.6776454929577462 1.8010507042253527 0.08546704225352131
H -1.9759254929577463 1.2426607042253535 -1.5115229577464788
C -0.4680254929577463 1.8513207042253539 1.4698070422535212
H -1.3950654929577464 1.5446707042253527 3.404047042253521
H 0.1461845070422536 1.9972507042253538 -0.6030529577464789
C -1.8679654929577463 -2.0866092957746467 -0.08765295774647863
C -0.6628654929577462 -1.814079295774647 0.5787970422535212
C -1.8438954929577462 -2.213429295774647 -1.4808029577464787
C 0.5129345070422537 -1.5763292957746469 -0.13022295774647863
H -0.6401854929577462 -1.7032692957746463 1.6609470422535213
C -0.6547954929577462 -1.9962392957746466 -2.1933129577464787
H -2.7578654929577464 -2.4351492957746466 -2.026182957746479
C 0.5308845070422537 -1.645769295774647 -1.5261029577464789
H 1.4044045070422537 -1.2610992957746463 0.41551704225352126
H -0.6795654929577464 -2.0467992957746466 -3.2793129577464786
C 1.7843245070422535 -1.2521692957746469 -2.2771629577464787
H 1.4981245070422535 -0.9384492957746469 -3.290282957746479
H 2.241984507042254 -0.38631929577464685 -1.8135029577464787
C 0.9385645070422537 2.0647807042253534 1.9815670422535212
H 1.0508945070422537 1.5807407042253532 2.9609770422535213
H 1.6053245070422537 1.5496207042253536 1.3096170422535214
C 3.9676945070422533 -1.6881692957746468 -3.314052957746479
H 4.795084507042254 -2.398849295774647 -3.4044129577464783
H 3.548404507042253 -1.4816192957746468 -4.303802957746479
H 4.307714507042253 -0.7637192957746466 -2.851282957746479
C 2.344694507042253 -3.565079295774647 -3.101282957746479
H 1.6334345070422536 -4.047909295774646 -2.4251929577464786
H 1.8561845070422536 -3.293109295774647 -4.041792957746479
H 3.1808045070422537 -4.243519295774647 -3.298122957746479
C 3.5156645070422536 -2.648489295774647 -1.1110629577464786
H 3.9311845070422535 -1.748249295774647 -0.6771029577464787
H 2.767184507042254 -3.1044092957746465 -0.45972295774647876
H 4.319224507042254 -3.371819295774647 -1.2863129577464787
C 2.963994507042253 3.381090704225353 2.401027042253521
H 3.3337945070422537 4.369820704225353 2.6912870422535216
H 3.120994507042253 2.671350704225353 3.2183370422535216
H 3.4665445070422534 3.0664207042253535 1.4881370422535212
C 1.2973745070422538 4.282440704225354 0.8488370422535213
H 1.7592145070422538 3.7367207042253527 0.02653704225352116
H 0.23311450704225378 4.4484607042253534 0.6605570422535213
H 1.7921845070422535 5.251370704225354 0.9736770422535213
C 0.7724845070422537 4.194670704225353 3.2772470422535216
H -0.2956954929577462 4.278220704225354 3.057857042253521
H 0.9298945070422537 3.612620704225354 4.190337042253521
H 1.2046345070422537 5.193640704225353 3.3918370422535213
N 2.876084507042253 -2.324759295774647 -2.4576629577464786
N 1.4527845070422536 3.504690704225353 2.1388470422535213
C -3.593905492957746 -3.637819295774647 0.8297870422535213
H -2.8952554929577463 -1.8680692957746468 1.7595270422535212
H -5.022615492957747 -1.2402792957746467 1.1579970422535213
H -4.898275492957747 -1.7933092957746464 -0.48931295774647876
H -3.883675492957746 0.07871070422535364 -1.2758929577464788
H -3.8751654929577466 -4.038529295774646 -0.1505529577464788
H -4.4603554929577465 -3.7321892957746465 1.4932570422535212
H -2.7953554929577464 -4.271929295774647 1.2313670422535212
H -5.648775492957746 1.147700704225353 0.9733970422535213
H -6.189795492957747 0.5254307042253537 -0.5943629577464788
H -5.2178854929577465 2.002970704225354 -0.5139729577464787
C 3.6710445070422537 1.0263707042253536 -0.27764295774647874
O 2.7356545070422538 1.6631507042253526 -0.7327029577464788
O 3.650814507042253 0.3883007042253537 0.7790570422535212
O 4.756604507042254 0.8696707042253538 -0.8334829577464786
O -9.502942684765257 -1.673974546594946 -2.5634100184996056
H -9.666906149753226 -1.196692123951404 -3.3906251223780655
H -9.79357621450821 -1.0565959220557772 -1.8754145754541778
O -0.38586993097496536 9.792474616937252 -0.9971201634534248
H 0.5732828128285653 9.73567690184672 -1.1226884337873533
H -0.4870159826289526 10.36696455456643 -0.22336779215002656
O 7.064718396203413 13.39865266483256 5.159204128779622
H 7.882453023197037 13.840790211550846 4.885723185206705
H 6.55670755246832 13.317339168568573 4.338061606270354
O -8.135586134683372 4.342062213440368 4.583114211070713
H -8.177856109904756 3.708259746344385 5.3148758107723015
H -7.611942239284886 5.075694023755314 4.93884357731128
O 2.277394109334383 2.924774137424043 -3.4883547894902116
H 1.893760236703498 2.402423604290458 -2.7679782704355644
H 2.992142475941738 2.3655694904416493 -3.8280412324422595
O 3.4418646997843343 5.619037091351667 10.021009158011061
H 3.041080080386103 6.316014039684957 10.561899331009084
H 4.3454820772374845 5.93304796459163 9.866624084406896
O 5.990623168789247 8.235913588346182 -2.6721294143972525
H 6.470292979646956 7.839705756757926 -3.4150315503747057
H 5.057795719459972 8.103050180826617 -2.898275847091045
O -8.141056016902795 8.77013257555485 5.7083220939546075
H -8.454565344446204 8.669240919615515 4.797004294169538
H -7.232439169828356 8.434464973744118 5.681777214841355
O -3.0294500432364107 -6.486255746058032 -1.4383332070011647
H -2.870307283905845 -6.414036591803701 -0.4852197128088709
H -2.823529549894061 -5.602277139168027 -1.7776568243378437
O 0.5959658573494426 3.0954249828850333 -7.903588007561519
H 1.3746024739259342 2.52201890940135 -7.966020780352256
H 0.9382486220689574 3.9782012909820095 -8.109768615618233
O -9.501920968111751 -5.7892334499588 -2.3846813944763774
H -9.303788480519076 -6.256955889022808 -1.559486511884177
H -8.895811177099635 -6.184556790835208 -3.0291286938714186
O 6.387176639559837 -11.154180607816272 0.7564591834770138
H 6.7130546109042495 -10.360717770312833 0.30569579743790504
H 5.5523496590183985 -11.352836102319989 0.3063904649866633
O 10.126804450106281 1.0878736718022535 0.8639224508589982
H 10.760657304772415 1.597195840458168 1.3909792258341729
H 9.374347442963732 0.960990351031735 1.4611418574528576
O -6.411986315310396 5.033722939314377 0.9296553167550201
H -6.867908727437251 5.16728600573382 0.08510631384928768
H -6.788834767641513 4.208924703125902 1.271203348305522
O -12.920708089965927 1.8187336271979433 -7.028008188648412
H -13.711764623499697 2.1364434370678813 -6.567294183688776
H -12.38553922309867 2.6169897431422147 -7.151876673718581
O 3.944339858660545 1.1593800256964253 -3.547300781362991
H 3.9107496310003076 1.5116213737616742 -2.6452114918694782
H 4.62070822574716 0.46689361547303 -3.503138037330252
O -0.20174640742963668 -10.944713701244574 -2.8357863628304645
H 0.03907063352991491 -10.501240618129128 -2.008558380811259
H -0.4108392054496086 -10.216262445923828 -3.4396082858655666
O 5.252308810829735 1.755327715849724 11.81496496830221
H 5.71106449735074 1.5215294645867183 12.63584800180394
H 5.799315395369213 2.458152265910978 11.433149053754834
O -9.709534772880241 0.391519477426455 -9.494977355858673
H -9.594510886028043 0.7965606155659462 -10.36771932160117
H -9.329592253882309 1.0404653608334786 -8.883851454782157
O -11.271871708122283 -0.5260123470157008 -7.3267732888411645
H -11.188723954000533 -0.6709289544599297 -6.372282333005875
H -11.095126983064766 -1.3973682547737205 -7.712081124836669
O -4.6189931119949845 -6.966040197753411 -9.889822061668575
H -4.552911100769903 -6.999366677246424 -10.855994857009579
H -3.730541305321788 -7.205496619738997 -9.586052488654765
O 5.468794786272329 3.47356808774877 -4.143119816468674
H 5.319500549440143 3.1574910465577655 -3.2393643784321244
H 6.247885429622599 4.044518832851668 -4.06569268678852
O -5.340205977265799 -2.6573351490184374 11.87121639225476
H -5.3673911278747655 -2.715546810705519 12.838087493762092
H -6.238905660756364 -2.3891702391311798 11.627519030145288
O -6.031558375531548 1.411098223793262 11.338116557414931
H -6.973728422097419 1.3996256773361604 11.56428317947013
H -6.023351678115106 1.5154095521066804 10.374781858982967
C 2.8126660695464945 4.998096325164616 7.376115939225828
O 3.4107169444661936 6.0343497970991775 7.412614572232427
O 2.214615194626795 3.9618428532300554 7.339617306219229