146

C -5.3564454929577465 1.0091607042253532 -0.0734429577464788
C -4.079135492957747 0.16955070422535368 -0.19788295774647868
C -4.333545492957747 -1.2789292957746463 0.3017270422535212
C -3.1403854929577464 -2.1745492957746464 0.7330270422535212
C -2.905235492957746 0.902300704225353 0.41966704225352136
C -2.7423854929577463 1.056130704225354 1.8024770422535212
C -1.8861754929577463 1.3499307042253532 -0.4326129577464788
C -1.5304554929577463 1.5279207042253526 2.3254170422535214
H -3.5237954929577464 0.7301007042253529 2.484817042253521
C -0.6776454929577462 1.8010507042253527 0.08546704225352131
H -1.9759254929577463 1.2426607042253535 -1.5115229577464788
C -0.4680254929577463 1.8513207042253539 1.4698070422535212
H -1.3950654929577464 1.5446707042253527 3.404047042253521
H 0.1461845070422536 1.9972507042253538 -0.6030529577464789
C -1.8679654929577463 -2.0866092957746467 -0.08765295774647863
C -0.6628654929577462 -1.814079295774647 0.5787970422535212
C -1.8438954929577462 -2.213429295774647 -1.4808029577464787
C 0.5129345070422537 -1.5763292957746469 -0.13022295774647863
H -0.6401854929577462 -1.7032692957746463 1.6609470422535213
C -0.6547954929577462 -1.9962392957746466 -2.1933129577464787
H -2.7578654929577464 -2.4351492957746466 -2.026182957746479
C 0.5308845070422537 -1.645769295774647 -1.5261029577464789
H 1.4044045070422537 -1.2610992957746463 0.41551704225352126
H -0.6795654929577464 -2.0467992957746466 -3.2793129577464786
C 1.7843245070422535 -1.2521692957746469 -2.2771629577464787
H 1.4981245070422535 -0.9384492957746469 -3.290282957746479
H 2.241984507042254 -0.38631929577464685 -1.8135029577464787
C 0.9385645070422537 2.0647807042253534 1.9815670422535212
H 1.0508945070422537 1.5807407042253532 2.9609770422535213
H 1.6053245070422537 1.5496207042253536 1.3096170422535214
C 3.9676945070422533 -1.6881692957746468 -3.314052957746479
H 4.795084507042254 -2.398849295774647 -3.4044129577464783
H 3.548404507042253 -1.4816192957746468 -4.303802957746479
H 4.307714507042253 -0.7637192957746466 -2.851282957746479
C 2.344694507042253 -3.565079295774647 -3.101282957746479
H 1.6334345070422536 -4.047909295774646 -2.4251929577464786
H 1.8561845070422536 -3.293109295774647 -4.041792957746479
H 3.1808045070422537 -4.243519295774647 -3.298122957746479
C 3.5156645070422536 -2.648489295774647 -1.1110629577464786
H 3.9311845070422535 -1.748249295774647 -0.6771029577464787
H 2.767184507042254 -3.1044092957746465 -0.45972295774647876
H 4.319224507042254 -3.371819295774647 -1.2863129577464787
C 2.963994507042253 3.381090704225353 2.401027042253521
H 3.3337945070422537 4.369820704225353 2.6912870422535216
H 3.120994507042253 2.671350704225353 3.2183370422535216
H 3.4665445070422534 3.0664207042253535 1.4881370422535212
C 1.2973745070422538 4.282440704225354 0.8488370422535213
H 1.7592145070422538 3.7367207042253527 0.02653704225352116
H 0.23311450704225378 4.4484607042253534 0.6605570422535213
H 1.7921845070422535 5.251370704225354 0.9736770422535213
C 0.7724845070422537 4.194670704225353 3.2772470422535216
H -0.2956954929577462 4.278220704225354 3.057857042253521
H 0.9298945070422537 3.612620704225354 4.190337042253521
H 1.2046345070422537 5.193640704225353 3.3918370422535213
N 2.876084507042253 -2.324759295774647 -2.4576629577464786
N 1.4527845070422536 3.504690704225353 2.1388470422535213
C -3.593905492957746 -3.637819295774647 0.8297870422535213
H -2.8952554929577463 -1.8680692957746468 1.7595270422535212
H -5.022615492957747 -1.2402792957746467 1.1579970422535213
H -4.898275492957747 -1.7933092957746464 -0.48931295774647876
H -3.883675492957746 0.07871070422535364 -1.2758929577464788
H -3.8751654929577466 -4.038529295774646 -0.1505529577464788
H -4.4603554929577465 -3.7321892957746465 1.4932570422535212
H -2.7953554929577464 -4.271929295774647 1.2313670422535212
H -5.648775492957746 1.147700704225353 0.9733970422535213
H -6.189795492957747 0.5254307042253537 -0.5943629577464788
H -5.2178854929577465 2.002970704225354 -0.5139729577464787
C 3.6710445070422537 1.0263707042253536 -0.27764295774647874
O 2.7356545070422538 1.6631507042253526 -0.7327029577464788
O 3.650814507042253 0.3883007042253537 0.7790570422535212
O 4.756604507042254 0.8696707042253538 -0.8334829577464786
O 4.889243775542072 -10.038447594169503 -5.12878739070824
H 5.01331429882464 -10.149632609996388 -4.174213268699914
H 3.9312035916850574 -10.117062800457255 -5.251019136811923
O 2.0909207656068194 -11.20243086993915 9.231674648728522
H 2.0521993578851765 -11.314860859048618 10.193354172807569
H 1.846349569235036 -12.073287191852643 8.884174805867296
O -5.277212710667317 10.510688254007723 3.6379237354204474
H -6.1521391565439885 10.164471782979582 3.4063957103469398
H -5.11610719675371 11.200680942006898 2.9769267246902134
O 10.667585734864215 1.3040432304766139 0.9139958378482778
H 11.07912547778148 1.265342359653279 1.7904116292949563
H 11.178796831388514 1.980579633578132 0.44503565364402853
O -4.785866217598169 -5.060056726096647 10.699240424173999
H -4.645779494027122 -5.412767016307201 11.590833671097009
H -4.850583251895483 -5.850414789876694 10.142367206296163
O -1.5681318487080027 -0.2974308912709637 5.942644529477323
H -1.567702508912104 -0.16904733172609054 6.9031052700627615
H -0.8174571158727216 0.2326601217513261 5.635312611682113
O 6.505008588939261 -2.9216799118100836 12.31599020547275
H 7.001324484022443 -2.218098885556225 11.871454910267353
H 6.858296163855758 -2.923158685638678 13.218291511543836
O -4.254597415559195 -0.7681887514837997 -6.191625158139134
H -3.57963514107842 -0.9674377020317168 -5.525522207662787
H -5.026992922510614 -1.2762783541511942 -5.9014319797173265
O -4.731589397914309 -4.426714367529287 5.082565043319887
H -5.186266443716558 -4.103819041684 4.290116464882266
H -3.791463334686089 -4.349255699861407 4.860923250460047
O -0.08832791550635122 13.039310415160138 -7.075602711688543
H -0.7107499150233751 13.731247343967013 -6.805822249144381
H -0.5353126236196468 12.21465680762334 -6.8324709725235
O 1.9892135144067233 6.562612313729206 6.875056269688459
H 2.9223252057864144 6.527520304186124 7.13397417014488
H 1.9496067339273595 6.026095482443623 6.069114003153607
O 13.011439505352419 5.060660449162255 1.6329295485949538
H 13.354224747419567 5.919776214409005 1.3441636631003828
H 12.579664380363534 4.703259097024466 0.842488874520731
O 1.2700964901778138 -11.139262804170473 -4.122472455485128
H 1.4193269315067403 -12.056083454037061 -4.398402751500232
H 1.3953459871522729 -11.160612840789845 -3.161837934065043
O 5.699432103717228 4.657505454481859 11.924193288050981
H 5.586449337376944 5.106282364950928 12.775546056320357
H 5.964615202257546 5.366503524133327 11.319245682237842
O 0.9563213378801563 -0.4916544316252236 -9.959332497181173
H 0.47682134999002446 0.30675623770821314 -9.69177405196238
H 0.8530328430594185 -0.5149734463281179 -10.922530116930595
O 4.780175372542837 8.772231875206053 2.4868906028419646
H 4.8535075396864755 8.76371624420058 1.520703646714633
H 5.427185356937406 8.111602355378519 2.776560521760343
O -7.666131363864325 8.274057359395897 -5.4428529135019685
H -8.069780845461501 8.849263755704145 -6.110065064584674
H -6.757088744462134 8.601708598984796 -5.37040896547136
O -4.6922422445501875 3.438050814628503 -12.006818944229146
H -5.456277431837706 3.5068660132206655 -12.598834195662123
H -4.008049912531611 3.9657995646730795 -12.445366608609389
O -11.022496579537236 4.900290084771376 7.439796179477733
H -11.391624198912165 5.007714543326394 8.329274758881844
H -10.085951817491686 4.70740175692124 7.596767342320524
O 1.725567540605728 11.807426327654117 3.513148449017963
H 1.7786620213650153 11.756611473471404 2.5469361619881967
H 2.6477195638635074 11.736694607431735 3.8022757809254935
O -7.655236676561045 -5.753261810971434 1.0924889198536816
H -7.191396424553947 -5.580625556880362 1.9255653276887585
H -7.873558370671501 -6.696287144973315 1.137219240793529
O 5.4391742656662405 -6.219763540508597 11.345788099195675
H 5.464312994610623 -6.3147796785157 12.309793978184635
H 4.967594036640869 -7.0109642497241556 11.044830511437576
O -9.180671943861343 -2.9580029978348623 2.6844934474637254
H -8.545442373577492 -2.8859663244536096 1.9563029039758533
H -9.167627590417446 -2.0799723390769094 3.094193278345196
O -14.616358959524657 2.857020413367298 4.414900237274345
H -15.384279010625782 2.357764711766503 4.098656824005484
H -14.092114277590554 2.199757441232789 4.896703976596406
C 7.900753552179918 1.613100748519134 -4.379211498509995
O 7.856582707090945 1.4089476001918602 -3.2005730103499532
O 7.944924397268888 1.8172538968464096 -5.557849986670036