146

C -5.3564454929577465 1.0091607042253532 -0.0734429577464788
C -4.079135492957747 0.16955070422535368 -0.19788295774647868
C -4.333545492957747 -1.2789292957746463 0.3017270422535212
C -3.1403854929577464 -2.1745492957746464 0.7330270422535212
C -2.905235492957746 0.902300704225353 0.41966704225352136
C -2.7423854929577463 1.056130704225354 1.8024770422535212
C -1.8861754929577463 1.3499307042253532 -0.4326129577464788
C -1.5304554929577463 1.5279207042253526 2.3254170422535214
H -3.5237954929577464 0.7301007042253529 2.484817042253521
C -0.6776454929577462 1.8010507042253527 0.08546704225352131
H -1.9759254929577463 1.2426607042253535 -1.5115229577464788
C -0.4680254929577463 1.8513207042253539 1.4698070422535212
H -1.3950654929577464 1.5446707042253527 3.404047042253521
H 0.1461845070422536 1.9972507042253538 -0.6030529577464789
C -1.8679654929577463 -2.0866092957746467 -0.08765295774647863
C -0.6628654929577462 -1.814079295774647 0.5787970422535212
C -1.8438954929577462 -2.213429295774647 -1.4808029577464787
C 0.5129345070422537 -1.5763292957746469 -0.13022295774647863
H -0.6401854929577462 -1.7032692957746463 1.6609470422535213
C -0.6547954929577462 -1.9962392957746466 -2.1933129577464787
H -2.7578654929577464 -2.4351492957746466 -2.026182957746479
C 0.5308845070422537 -1.645769295774647 -1.5261029577464789
H 1.4044045070422537 -1.2610992957746463 0.41551704225352126
H -0.6795654929577464 -2.0467992957746466 -3.2793129577464786
C 1.7843245070422535 -1.2521692957746469 -2.2771629577464787
H 1.4981245070422535 -0.9384492957746469 -3.290282957746479
H 2.241984507042254 -0.38631929577464685 -1.8135029577464787
C 0.9385645070422537 2.0647807042253534 1.9815670422535212
H 1.0508945070422537 1.5807407042253532 2.9609770422535213
H 1.6053245070422537 1.5496207042253536 1.3096170422535214
C 3.9676945070422533 -1.6881692957746468 -3.314052957746479
H 4.795084507042254 -2.398849295774647 -3.4044129577464783
H 3.548404507042253 -1.4816192957746468 -4.303802957746479
H 4.307714507042253 -0.7637192957746466 -2.851282957746479
C 2.344694507042253 -3.565079295774647 -3.101282957746479
H 1.6334345070422536 -4.047909295774646 -2.4251929577464786
H 1.8561845070422536 -3.293109295774647 -4.041792957746479
H 3.1808045070422537 -4.243519295774647 -3.298122957746479
C 3.5156645070422536 -2.648489295774647 -1.1110629577464786
H 3.9311845070422535 -1.748249295774647 -0.6771029577464787
H 2.767184507042254 -3.1044092957746465 -0.45972295774647876
H 4.319224507042254 -3.371819295774647 -1.2863129577464787
C 2.963994507042253 3.381090704225353 2.401027042253521
H 3.3337945070422537 4.369820704225353 2.6912870422535216
H 3.120994507042253 2.671350704225353 3.2183370422535216
H 3.4665445070422534 3.0664207042253535 1.4881370422535212
C 1.2973745070422538 4.282440704225354 0.8488370422535213
H 1.7592145070422538 3.7367207042253527 0.02653704225352116
H 0.23311450704225378 4.4484607042253534 0.6605570422535213
H 1.7921845070422535 5.251370704225354 0.9736770422535213
C 0.7724845070422537 4.194670704225353 3.2772470422535216
H -0.2956954929577462 4.278220704225354 3.057857042253521
H 0.9298945070422537 3.612620704225354 4.190337042253521
H 1.2046345070422537 5.193640704225353 3.3918370422535213
N 2.876084507042253 -2.324759295774647 -2.4576629577464786
N 1.4527845070422536 3.504690704225353 2.1388470422535213
C -3.593905492957746 -3.637819295774647 0.8297870422535213
H -2.8952554929577463 -1.8680692957746468 1.7595270422535212
H -5.022615492957747 -1.2402792957746467 1.1579970422535213
H -4.898275492957747 -1.7933092957746464 -0.48931295774647876
H -3.883675492957746 0.07871070422535364 -1.2758929577464788
H -3.8751654929577466 -4.038529295774646 -0.1505529577464788
H -4.4603554929577465 -3.7321892957746465 1.4932570422535212
H -2.7953554929577464 -4.271929295774647 1.2313670422535212
H -5.648775492957746 1.147700704225353 0.9733970422535213
H -6.189795492957747 0.5254307042253537 -0.5943629577464788
H -5.2178854929577465 2.002970704225354 -0.5139729577464787
C 3.6710445070422537 1.0263707042253536 -0.27764295774647874
O 2.7356545070422538 1.6631507042253526 -0.7327029577464788
O 3.650814507042253 0.3883007042253537 0.7790570422535212
O 4.756604507042254 0.8696707042253538 -0.8334829577464786
O 7.276577576010762 -6.8944399852663025 7.325369069157852
H 7.539973895389812 -7.781543231275615 7.037901563590157
H 6.660895824238604 -7.058179111388696 8.055497430072176
O -1.7004028087380845 -0.7647670081783129 7.623364520202992
H -2.0879934518479937 0.1097025093286875 7.468303521803259
H -0.7535542352630022 -0.632455930806632 7.465461062315124
O 4.640101906519977 -7.06960467636384 4.377056736467981
H 4.390024824145353 -7.2621538296604795 5.293219185674313
H 5.3542975416654786 -7.697924687909222 4.192393523751635
O -3.212762240261111 5.342027425966764 -5.487732267864952
H -3.995127000521127 4.773418435896588 -5.5473691290723055
H -3.268734201417703 5.724730281051023 -4.599268645326223
O -10.994219178697383 1.9715989853715266 -4.943991942855469
H -11.32341133378565 2.8595852463138174 -5.149126733434914
H -10.601654414711014 2.0652283200772987 -4.0630331480989375
O 0.5955596686424436 -2.1985218151045114 5.817679978808193
H 0.6850405841217213 -2.39491373678395 4.873015627959677
H 1.1198236669442414 -1.3928137533340785 5.9399245025413405
O 0.6000057102752923 -3.259347753770845 10.568400271651186
H 0.9600838807896066 -2.743009077150592 11.305085712694453
H 0.8609785096737461 -2.75780061210967 9.781440547798919
O -0.03785335785291011 9.954646853014061 3.07802142489364
H -0.7629211292536286 10.59133146099936 2.989270122195584
H 0.7606056854634975 10.502278799659967 3.0389784811129474
O -0.616088583854844 4.454980493390458 5.2877541149793075
H -0.7241770477041034 4.6386519188191135 6.233031348579965
H -0.020983185649056324 5.15498730207463 4.979854817932154
O 5.052235453150648 -3.044523108701253 -6.9950087483137215
H 4.9410873881184045 -3.1029922541493073 -6.034178470080274
H 4.472640960203656 -2.3122724421921177 -7.253545263031557
O -1.808207998054054 11.14130411893884 0.6094281116294851
H -1.6270042855001794 11.602063948229633 -0.2235382449351817
H -2.1771753756992274 11.830111229928644 1.1824636972465783
O -11.660647960650525 5.99334638787426 -1.5122682064246455
H -12.416709380025454 5.784488840417554 -0.9433068616013425
H -11.721345238784945 5.344763706460132 -2.229637211955783
O 5.8719511386507595 2.0177641179422445 1.9757379226195813
H 5.518733437412779 1.8520490454460599 1.088752507192844
H 5.257420243500175 1.5526151791157634 2.5630625244489442
O 3.587624592623559 11.768331315794097 3.6336657854023366
H 4.31520333412058 12.390793400986299 3.4848790779322503
H 3.306035403089987 11.519607824834686 2.740465865069386
O -6.372452805813312 -4.849820801523533 3.7794413625415415
H -6.362424106860562 -4.818810719173981 4.747896398611875
H -5.743301297965482 -4.161277944389376 3.5166885160063734
O -9.299682106765562 4.678643446061688 -2.8401664331341054
H -9.303699855075726 4.6626415514812525 -3.809029247968256
H -9.478846282312539 3.7597547530014466 -2.590155008861915
O -7.252198237014219 -2.0215621041640115 -2.991844781653307
H -6.955220866375648 -2.6427839599411986 -3.6736476887557545
H -7.8424765338143025 -1.4174220615844368 -3.466764022765669
O 0.2854967824387111 -4.983218942465375 -5.636266570557556
H -0.24288451830927404 -5.77398802674416 -5.4506195580075
H 1.0436964741771875 -5.0625962193003815 -5.0381073779759005
O -0.8504433457399481 13.76374742294999 8.487604140145265
H -0.6123449520249471 14.029712829776317 9.38845868677421
H -0.8797448534641434 14.598873157895603 7.997024510750975
O 1.689482017132262 6.1944704299836815 10.299774697848507
H 2.083477021991123 5.321513116420055 10.152530608860042
H 1.7585265431135262 6.6309044967949395 9.437382615870357
O -12.203580140534251 -0.3813175218873787 -9.41921314016577
H -12.40970856985158 -0.2535474466703231 -10.357377963321168
H -11.744848747279217 0.4341648969183763 -9.167189574281522
O 4.289418016032407 -0.5485939269949869 -7.533745591450819
H 5.10138202982378 -0.16749953092698977 -7.167072905675926
H 3.6260668112100767 -0.3933962204115362 -6.844658662803932
O -3.909892455872624 7.824442555234083 2.38208476327797
H -4.420531160461813 7.271322979865697 1.7719419884950747
H -3.70105764035726 8.615099279104896 1.862265651349083
O 10.569978844488569 4.36668733210988 5.4197921255532275
H 11.238481231249468 3.6947970256275466 5.218210053309541
H 10.420619514162649 4.2698657858069575 6.372304237243206
C 3.9751683306924765 -4.244558131201454 7.069524111554961
O 4.615487967300975 -4.76790752279722 6.20412568620979
O 3.334848694083979 -3.721208739605687 7.9349225369001335