146

C -5.3564454929577465 1.0091607042253532 -0.0734429577464788
C -4.079135492957747 0.16955070422535368 -0.19788295774647868
C -4.333545492957747 -1.2789292957746463 0.3017270422535212
C -3.1403854929577464 -2.1745492957746464 0.7330270422535212
C -2.905235492957746 0.902300704225353 0.41966704225352136
C -2.7423854929577463 1.056130704225354 1.8024770422535212
C -1.8861754929577463 1.3499307042253532 -0.4326129577464788
C -1.5304554929577463 1.5279207042253526 2.3254170422535214
H -3.5237954929577464 0.7301007042253529 2.484817042253521
C -0.6776454929577462 1.8010507042253527 0.08546704225352131
H -1.9759254929577463 1.2426607042253535 -1.5115229577464788
C -0.4680254929577463 1.8513207042253539 1.4698070422535212
H -1.3950654929577464 1.5446707042253527 3.404047042253521
H 0.1461845070422536 1.9972507042253538 -0.6030529577464789
C -1.8679654929577463 -2.0866092957746467 -0.08765295774647863
C -0.6628654929577462 -1.814079295774647 0.5787970422535212
C -1.8438954929577462 -2.213429295774647 -1.4808029577464787
C 0.5129345070422537 -1.5763292957746469 -0.13022295774647863
H -0.6401854929577462 -1.7032692957746463 1.6609470422535213
C -0.6547954929577462 -1.9962392957746466 -2.1933129577464787
H -2.7578654929577464 -2.4351492957746466 -2.026182957746479
C 0.5308845070422537 -1.645769295774647 -1.5261029577464789
H 1.4044045070422537 -1.2610992957746463 0.41551704225352126
H -0.6795654929577464 -2.0467992957746466 -3.2793129577464786
C 1.7843245070422535 -1.2521692957746469 -2.2771629577464787
H 1.4981245070422535 -0.9384492957746469 -3.290282957746479
H 2.241984507042254 -0.38631929577464685 -1.8135029577464787
C 0.9385645070422537 2.0647807042253534 1.9815670422535212
H 1.0508945070422537 1.5807407042253532 2.9609770422535213
H 1.6053245070422537 1.5496207042253536 1.3096170422535214
C 3.9676945070422533 -1.6881692957746468 -3.314052957746479
H 4.795084507042254 -2.398849295774647 -3.4044129577464783
H 3.548404507042253 -1.4816192957746468 -4.303802957746479
H 4.307714507042253 -0.7637192957746466 -2.851282957746479
C 2.344694507042253 -3.565079295774647 -3.101282957746479
H 1.6334345070422536 -4.047909295774646 -2.4251929577464786
H 1.8561845070422536 -3.293109295774647 -4.041792957746479
H 3.1808045070422537 -4.243519295774647 -3.298122957746479
C 3.5156645070422536 -2.648489295774647 -1.1110629577464786
H 3.9311845070422535 -1.748249295774647 -0.6771029577464787
H 2.767184507042254 -3.1044092957746465 -0.45972295774647876
H 4.319224507042254 -3.371819295774647 -1.2863129577464787
C 2.963994507042253 3.381090704225353 2.401027042253521
H 3.3337945070422537 4.369820704225353 2.6912870422535216
H 3.120994507042253 2.671350704225353 3.2183370422535216
H 3.4665445070422534 3.0664207042253535 1.4881370422535212
C 1.2973745070422538 4.282440704225354 0.8488370422535213
H 1.7592145070422538 3.7367207042253527 0.02653704225352116
H 0.23311450704225378 4.4484607042253534 0.6605570422535213
H 1.7921845070422535 5.251370704225354 0.9736770422535213
C 0.7724845070422537 4.194670704225353 3.2772470422535216
H -0.2956954929577462 4.278220704225354 3.057857042253521
H 0.9298945070422537 3.612620704225354 4.190337042253521
H 1.2046345070422537 5.193640704225353 3.3918370422535213
N 2.876084507042253 -2.324759295774647 -2.4576629577464786
N 1.4527845070422536 3.504690704225353 2.1388470422535213
C -3.593905492957746 -3.637819295774647 0.8297870422535213
H -2.8952554929577463 -1.8680692957746468 1.7595270422535212
H -5.022615492957747 -1.2402792957746467 1.1579970422535213
H -4.898275492957747 -1.7933092957746464 -0.48931295774647876
H -3.883675492957746 0.07871070422535364 -1.2758929577464788
H -3.8751654929577466 -4.038529295774646 -0.1505529577464788
H -4.4603554929577465 -3.7321892957746465 1.4932570422535212
H -2.7953554929577464 -4.271929295774647 1.2313670422535212
H -5.648775492957746 1.147700704225353 0.9733970422535213
H -6.189795492957747 0.5254307042253537 -0.5943629577464788
H -5.2178854929577465 2.002970704225354 -0.5139729577464787
C 3.6710445070422537 1.0263707042253536 -0.27764295774647874
O 2.7356545070422538 1.6631507042253526 -0.7327029577464788
O 3.650814507042253 0.3883007042253537 0.7790570422535212
O 4.756604507042254 0.8696707042253538 -0.8334829577464786
O -0.814785943573046 -5.388805260761647 6.077006525793467
H -1.0035795006869037 -5.333993762095668 5.12815456194121
H 0.11421789464914012 -5.661637459242961 6.115430533136501
O -0.1657464519784576 -4.476102810523689 -8.736926706979014
H -0.2572767738117292 -4.3087359798673655 -9.686967706663319
H -1.0068545864138683 -4.172488176662809 -8.363674507263987
O 0.8363051649998416 -0.3763718536809497 13.124908272502354
H 1.3236120540608116 -0.10263161212733607 13.916467261414672
H 1.0687348742088536 -1.3110487520698628 13.01852467322552
O -6.5561108737002645 15.223835083485461 6.265978222779465
H -6.552322307766087 16.088015447319098 5.827634405174459
H -7.188854011622392 14.702272030115767 5.7496740032807825
O -8.367150573514198 4.638683602854921 4.100203590388839
H -9.042216914390488 5.288271904837881 4.347767380638531
H -7.852341245531439 4.515228589484299 4.911802111700698
O -7.533251718141572 -1.757124719943794 10.084473019074174
H -6.726055360045999 -2.280787351262782 9.969673868653455
H -7.824907285116767 -1.5749834642959604 9.178535086573602
O -3.688029522072032 -1.8797111321974143 -4.894015018702673
H -3.9174551939040985 -1.2507486589327566 -5.594541552981861
H -4.345624657489683 -2.585152610006049 -4.9882641755276005
O 10.60918370432715 -4.992821785230349 -1.8458354540302162
H 10.526235121950416 -5.027697302122372 -0.8810191047164178
H 10.053870821214964 -4.24099867412378 -2.101474957541845
O -4.509013308180972 -0.04604109607874096 7.047975946741118
H -4.488911619303638 -0.22300685267628273 6.095481117360852
H -4.497673895683539 -0.9275845003480363 7.450113470995586
O 2.5086302526025324 0.9929693382112132 -3.348107974392885
H 3.156623664483435 1.4955543721042786 -3.8643251561736296
H 1.6993152746025133 1.0399510024725718 -3.878922380666925
O -8.519222870372321 1.5515374438443357 -3.706059841715598
H -8.462461638844976 1.6267335142295707 -2.741647548920592
H -8.336396561793439 2.449162246525301 -4.021981032526494
O 1.9219338239074757 1.2344558709071953 8.181730580415692
H 1.963132357293134 1.2577105716602497 7.213882835860922
H 1.4992153904695633 2.073702493831731 8.418238880992138
O 7.109316055644186 -4.668350639175403 -0.5680311810347591
H 6.949419842222994 -5.476800379943288 -1.07774637061214
H 7.113120047570687 -4.96928784101281 0.3530465977090844
O 0.9192645433743447 -7.457001574090705 -1.15603188576036
H 0.3877671796601556 -8.064742022895741 -1.6918765051708013
H 0.3053777178168082 -7.150033696403397 -0.4720175351981519
O 14.10384305577394 1.620225836656679 3.487639746374512
H 15.006375098512628 1.739620419051369 3.1557539189809214
H 14.144214250779356 0.7872967694795676 3.9811590266111607
O 8.268968721320526 1.8077342738761804 8.433337826609112
H 9.200085425308044 1.5463408029889074 8.49385636784176
H 8.301541313403337 2.7099096534719287 8.081229100508388
O -1.3224335300039796 -7.264408599896791 12.774802619270698
H -1.2395887791481046 -7.11009314735741 13.727845559154936
H -2.1038070188345595 -7.832134855389381 12.69667250934442
O -1.0800901961015241 5.4902918252604485 0.8822103383767589
H -1.0843155760968664 5.304850071030775 -0.06887370567619328
H -1.9262269947816901 5.936280844568977 1.0374786766672681
O -11.649131065161589 -4.260438077130241 -5.030455435910545
H -11.944243355428839 -4.906975291328736 -5.689140279891084
H -11.343935513829269 -4.804428268297395 -4.288908207703949
O 10.130494780600683 -5.194511386656335 3.5895940988410002
H 10.950487876340123 -5.697128560217164 3.471464269071477
H 9.436434182067208 -5.809536561436394 3.3085498598854386
O 1.0035241836240882 5.249234738292843 -3.6707936474120126
H 1.6710977057656562 4.7279597095970045 -4.141522118925745
H 0.41067394991594036 4.5829475229162036 -3.2919112232777747
O 11.196396474231634 3.9982731689807647 5.9025017947734035
H 11.242645857650144 4.064486870975016 6.868133244707396
H 11.035263608671858 3.056699255651978 5.7399080997074226
O -2.180432269663389 -8.022602465438752 6.5716723581537995
H -2.2143290269437124 -8.38810672646324 7.46845828685631
H -2.1918942919208053 -8.80462872552821 5.9996011258092
O 2.3428307866092606 -0.7130283512074669 -5.211349958161213
H 1.8196090336109285 -1.0107177360223045 -4.452016444968283
H 1.8545744876432524 0.05431546505719442 -5.545642043709766
C -5.2661884384939945 2.331769154288604 -8.506870501278891
O -6.076531484195654 1.914009913684235 -7.731216182350273
O -4.455845392792334 2.7495283948929736 -9.28252482020751