146

C -5.3564454929577465 1.0091607042253532 -0.0734429577464788
C -4.079135492957747 0.16955070422535368 -0.19788295774647868
C -4.333545492957747 -1.2789292957746463 0.3017270422535212
C -3.1403854929577464 -2.1745492957746464 0.7330270422535212
C -2.905235492957746 0.902300704225353 0.41966704225352136
C -2.7423854929577463 1.056130704225354 1.8024770422535212
C -1.8861754929577463 1.3499307042253532 -0.4326129577464788
C -1.5304554929577463 1.5279207042253526 2.3254170422535214
H -3.5237954929577464 0.7301007042253529 2.484817042253521
C -0.6776454929577462 1.8010507042253527 0.08546704225352131
H -1.9759254929577463 1.2426607042253535 -1.5115229577464788
C -0.4680254929577463 1.8513207042253539 1.4698070422535212
H -1.3950654929577464 1.5446707042253527 3.404047042253521
H 0.1461845070422536 1.9972507042253538 -0.6030529577464789
C -1.8679654929577463 -2.0866092957746467 -0.08765295774647863
C -0.6628654929577462 -1.814079295774647 0.5787970422535212
C -1.8438954929577462 -2.213429295774647 -1.4808029577464787
C 0.5129345070422537 -1.5763292957746469 -0.13022295774647863
H -0.6401854929577462 -1.7032692957746463 1.6609470422535213
C -0.6547954929577462 -1.9962392957746466 -2.1933129577464787
H -2.7578654929577464 -2.4351492957746466 -2.026182957746479
C 0.5308845070422537 -1.645769295774647 -1.5261029577464789
H 1.4044045070422537 -1.2610992957746463 0.41551704225352126
H -0.6795654929577464 -2.0467992957746466 -3.2793129577464786
C 1.7843245070422535 -1.2521692957746469 -2.2771629577464787
H 1.4981245070422535 -0.9384492957746469 -3.290282957746479
H 2.241984507042254 -0.38631929577464685 -1.8135029577464787
C 0.9385645070422537 2.0647807042253534 1.9815670422535212
H 1.0508945070422537 1.5807407042253532 2.9609770422535213
H 1.6053245070422537 1.5496207042253536 1.3096170422535214
C 3.9676945070422533 -1.6881692957746468 -3.314052957746479
H 4.795084507042254 -2.398849295774647 -3.4044129577464783
H 3.548404507042253 -1.4816192957746468 -4.303802957746479
H 4.307714507042253 -0.7637192957746466 -2.851282957746479
C 2.344694507042253 -3.565079295774647 -3.101282957746479
H 1.6334345070422536 -4.047909295774646 -2.4251929577464786
H 1.8561845070422536 -3.293109295774647 -4.041792957746479
H 3.1808045070422537 -4.243519295774647 -3.298122957746479
C 3.5156645070422536 -2.648489295774647 -1.1110629577464786
H 3.9311845070422535 -1.748249295774647 -0.6771029577464787
H 2.767184507042254 -3.1044092957746465 -0.45972295774647876
H 4.319224507042254 -3.371819295774647 -1.2863129577464787
C 2.963994507042253 3.381090704225353 2.401027042253521
H 3.3337945070422537 4.369820704225353 2.6912870422535216
H 3.120994507042253 2.671350704225353 3.2183370422535216
H 3.4665445070422534 3.0664207042253535 1.4881370422535212
C 1.2973745070422538 4.282440704225354 0.8488370422535213
H 1.7592145070422538 3.7367207042253527 0.02653704225352116
H 0.23311450704225378 4.4484607042253534 0.6605570422535213
H 1.7921845070422535 5.251370704225354 0.9736770422535213
C 0.7724845070422537 4.194670704225353 3.2772470422535216
H -0.2956954929577462 4.278220704225354 3.057857042253521
H 0.9298945070422537 3.612620704225354 4.190337042253521
H 1.2046345070422537 5.193640704225353 3.3918370422535213
N 2.876084507042253 -2.324759295774647 -2.4576629577464786
N 1.4527845070422536 3.504690704225353 2.1388470422535213
C -3.593905492957746 -3.637819295774647 0.8297870422535213
H -2.8952554929577463 -1.8680692957746468 1.7595270422535212
H -5.022615492957747 -1.2402792957746467 1.1579970422535213
H -4.898275492957747 -1.7933092957746464 -0.48931295774647876
H -3.883675492957746 0.07871070422535364 -1.2758929577464788
H -3.8751654929577466 -4.038529295774646 -0.1505529577464788
H -4.4603554929577465 -3.7321892957746465 1.4932570422535212
H -2.7953554929577464 -4.271929295774647 1.2313670422535212
H -5.648775492957746 1.147700704225353 0.9733970422535213
H -6.189795492957747 0.5254307042253537 -0.5943629577464788
H -5.2178854929577465 2.002970704225354 -0.5139729577464787
C 3.6710445070422537 1.0263707042253536 -0.27764295774647874
O 2.7356545070422538 1.6631507042253526 -0.7327029577464788
O 3.650814507042253 0.3883007042253537 0.7790570422535212
O 4.756604507042254 0.8696707042253538 -0.8334829577464786
O -2.9307662418275617 -2.0967624183154028 -4.11864698037539
H -2.556908153666231 -1.4551812457277502 -4.741199055142961
H -2.920074560957895 -2.9324069280222123 -4.609101754699227
O 9.95084423167664 11.028629807893662 -4.0321534791646005
H 10.725351564639597 10.992108801126903 -4.613335003433356
H 10.308606681896988 10.83396755523715 -3.1529068807048573
O 5.320412778616595 8.373638618237901 -2.764605973568477
H 6.016864402696004 8.069026088489991 -3.36554998005971
H 5.707081386764103 8.263031794131614 -1.8830077304699606
O 7.658539375562171 -6.8385875302883115 -3.0175393666233057
H 7.594321735601957 -7.7274653656131385 -3.3979860060961657
H 7.701930470416453 -6.9954161060602 -2.062299106265365
O -2.2463128859879813 12.337914927719357 4.069469928579551
H -2.251130070565732 12.195409652475321 3.1110147141013953
H -1.4896840247861807 12.92555094686876 4.214929956404063
O -5.138632355033072 5.574273142974427 -1.787654699653738
H -5.139375159816178 5.485614810922477 -2.75259330148228
H -5.99342524576241 5.985514991147837 -1.5897375438296448
O -10.714836493663881 2.750008833673284 -5.949015286415221
H -10.654332968878625 2.2273672570900755 -5.135287775011569
H -10.507785896865194 2.114956753182746 -6.651013042629545
O 12.607499483824714 -4.184665690024116 -3.419057180238728
H 13.545399306057824 -3.9831788474009255 -3.282256841771145
H 12.336962319667027 -4.612124840967124 -2.5925886319051594
O 3.4998906283266145 -1.5121962171977872 -9.243581614737712
H 3.1983881804014684 -2.1591100245133945 -9.898994581270701
H 4.456066293917187 -1.6603317305236416 -9.191180178458627
O -0.9469687077710567 5.081230958739699 -8.956843994239645
H -0.23418075845018366 5.724180734748341 -8.824494903825752
H -0.8429904931315901 4.46138740333663 -8.219318101808964
O -0.21999790601295865 0.9670693255386263 10.066592822174913
H -0.03921349143883934 1.060136231405298 11.014022451951975
H 0.2031577465697849 1.7434522684312797 9.670195592148499
O 5.378153583562971 -8.370392101006695 10.678601527846242
H 5.63093312929036 -8.43379815331863 9.745301184606152
H 5.662229680352421 -7.4810636882797565 10.93813512846368
O -5.991722484971101 -7.318440256443195 11.458915359401608
H -6.327859829842369 -7.256012207266403 12.365602615824063
H -5.845359535640354 -8.267385806617362 11.328369680929084
O -0.04939342528454471 10.198043101070763 -1.4539295244371377
H 0.04366810369762142 9.834335240402483 -0.5606079133632726
H 0.8247202732828045 10.068588636934566 -1.8515835549613084
O 9.17994106259293 -4.006110655516162 -2.708369567523278
H 8.915593593153885 -3.5090862572014463 -1.9196652377639762
H 10.090976795572853 -3.7190940352589688 -2.8714563457423337
O -3.756876523105876 5.965030811145222 1.420210700149775
H -4.129712945984956 5.335537069236203 0.7848383781431301
H -2.8240488929252865 5.710191255055133 1.4822700050400974
O 6.4679767584123 4.532411606834114 -0.9706468986284329
H 6.673222442426055 3.5863015473926874 -1.0120874767791697
H 6.703543466314875 4.7835631386740305 -0.06489131433297501
O 1.1557315143077913 -0.9642703218851606 3.3210544397088144
H 0.6668367977010581 -0.163099028214377 3.0800692302624535
H 1.335791767308134 -1.3931698710963811 2.471004190443593
O 0.05962494519906841 -5.540877040566346 -0.5529628465896328
H -0.2503378410757358 -4.65063001664953 -0.7773523838502059
H 0.14808606113112188 -5.981255298522636 -1.4115684400884403
O 12.659168592690273 -3.6602792207288175 -7.867961226338337
H 13.53356296769469 -3.996582850561475 -7.620369420290538
H 12.5902400031998 -2.817156579741945 -7.395356734076387
O -2.922542610920582 -9.788704439227258 -4.38120583434778
H -3.0803134998042823 -10.624006326368749 -4.84633641908578
H -3.479724126092555 -9.851990012458206 -3.5909491420815938
O 2.2556296851289726 -6.5400781060994815 1.7538407498991255
H 2.4362450400288953 -5.588092343787011 1.7455607240102038
H 2.840185661297627 -6.895194961766439 1.0674383359707336
O -7.460494225602951 -6.771735171680771 10.63008614538672
H -7.654874897510547 -7.721042029244433 10.630124503632112
H -8.319153699887817 -6.357008183030285 10.457843942643787
O 1.7781485868364952 11.00245499328808 5.277853561505649
H 2.160304174569526 10.990493954823526 6.168236286643144
H 1.597076882855252 10.06958340114099 5.088313130773096
C -2.9987903516952152 -6.824773836331537 6.402948938618376
O -3.3725469754402755 -7.762791801751345 5.7601063917561
O -2.625033727950154 -5.886755870911729 7.0457914854806525