146

C -5.3564454929577465 1.0091607042253532 -0.0734429577464788
C -4.079135492957747 0.16955070422535368 -0.19788295774647868
C -4.333545492957747 -1.2789292957746463 0.3017270422535212
C -3.1403854929577464 -2.1745492957746464 0.7330270422535212
C -2.905235492957746 0.902300704225353 0.41966704225352136
C -2.7423854929577463 1.056130704225354 1.8024770422535212
C -1.8861754929577463 1.3499307042253532 -0.4326129577464788
C -1.5304554929577463 1.5279207042253526 2.3254170422535214
H -3.5237954929577464 0.7301007042253529 2.484817042253521
C -0.6776454929577462 1.8010507042253527 0.08546704225352131
H -1.9759254929577463 1.2426607042253535 -1.5115229577464788
C -0.4680254929577463 1.8513207042253539 1.4698070422535212
H -1.3950654929577464 1.5446707042253527 3.404047042253521
H 0.1461845070422536 1.9972507042253538 -0.6030529577464789
C -1.8679654929577463 -2.0866092957746467 -0.08765295774647863
C -0.6628654929577462 -1.814079295774647 0.5787970422535212
C -1.8438954929577462 -2.213429295774647 -1.4808029577464787
C 0.5129345070422537 -1.5763292957746469 -0.13022295774647863
H -0.6401854929577462 -1.7032692957746463 1.6609470422535213
C -0.6547954929577462 -1.9962392957746466 -2.1933129577464787
H -2.7578654929577464 -2.4351492957746466 -2.026182957746479
C 0.5308845070422537 -1.645769295774647 -1.5261029577464789
H 1.4044045070422537 -1.2610992957746463 0.41551704225352126
H -0.6795654929577464 -2.0467992957746466 -3.2793129577464786
C 1.7843245070422535 -1.2521692957746469 -2.2771629577464787
H 1.4981245070422535 -0.9384492957746469 -3.290282957746479
H 2.241984507042254 -0.38631929577464685 -1.8135029577464787
C 0.9385645070422537 2.0647807042253534 1.9815670422535212
H 1.0508945070422537 1.5807407042253532 2.9609770422535213
H 1.6053245070422537 1.5496207042253536 1.3096170422535214
C 3.9676945070422533 -1.6881692957746468 -3.314052957746479
H 4.795084507042254 -2.398849295774647 -3.4044129577464783
H 3.548404507042253 -1.4816192957746468 -4.303802957746479
H 4.307714507042253 -0.7637192957746466 -2.851282957746479
C 2.344694507042253 -3.565079295774647 -3.101282957746479
H 1.6334345070422536 -4.047909295774646 -2.4251929577464786
H 1.8561845070422536 -3.293109295774647 -4.041792957746479
H 3.1808045070422537 -4.243519295774647 -3.298122957746479
C 3.5156645070422536 -2.648489295774647 -1.1110629577464786
H 3.9311845070422535 -1.748249295774647 -0.6771029577464787
H 2.767184507042254 -3.1044092957746465 -0.45972295774647876
H 4.319224507042254 -3.371819295774647 -1.2863129577464787
C 2.963994507042253 3.381090704225353 2.401027042253521
H 3.3337945070422537 4.369820704225353 2.6912870422535216
H 3.120994507042253 2.671350704225353 3.2183370422535216
H 3.4665445070422534 3.0664207042253535 1.4881370422535212
C 1.2973745070422538 4.282440704225354 0.8488370422535213
H 1.7592145070422538 3.7367207042253527 0.02653704225352116
H 0.23311450704225378 4.4484607042253534 0.6605570422535213
H 1.7921845070422535 5.251370704225354 0.9736770422535213
C 0.7724845070422537 4.194670704225353 3.2772470422535216
H -0.2956954929577462 4.278220704225354 3.057857042253521
H 0.9298945070422537 3.612620704225354 4.190337042253521
H 1.2046345070422537 5.193640704225353 3.3918370422535213
N 2.876084507042253 -2.324759295774647 -2.4576629577464786
N 1.4527845070422536 3.504690704225353 2.1388470422535213
C -3.593905492957746 -3.637819295774647 0.8297870422535213
H -2.8952554929577463 -1.8680692957746468 1.7595270422535212
H -5.022615492957747 -1.2402792957746467 1.1579970422535213
H -4.898275492957747 -1.7933092957746464 -0.48931295774647876
H -3.883675492957746 0.07871070422535364 -1.2758929577464788
H -3.8751654929577466 -4.038529295774646 -0.1505529577464788
H -4.4603554929577465 -3.7321892957746465 1.4932570422535212
H -2.7953554929577464 -4.271929295774647 1.2313670422535212
H -5.648775492957746 1.147700704225353 0.9733970422535213
H -6.189795492957747 0.5254307042253537 -0.5943629577464788
H -5.2178854929577465 2.002970704225354 -0.5139729577464787
C 3.6710445070422537 1.0263707042253536 -0.27764295774647874
O 2.7356545070422538 1.6631507042253526 -0.7327029577464788
O 3.650814507042253 0.3883007042253537 0.7790570422535212
O 4.756604507042254 0.8696707042253538 -0.8334829577464786
O 7.1776032320004095 -2.4859118675049157 1.3709231007919174
H 7.339620514674621 -1.9382922867456915 2.153758046220363
H 6.7208707136577015 -3.265495803744698 1.7210748355373189
O -5.271225050000131 0.08113644674025866 -4.485321274040429
H -4.901281827901491 -0.7970570016443648 -4.309578175918195
H -5.209101371942911 0.17292455127307127 -5.447962191927735
O 2.7780301019396623 -1.7225823548267583 14.055576285342148
H 3.5301261368374854 -2.13097330775761 14.510038319790798
H 3.142738919793603 -1.446005214670369 13.201495195502025
O -6.890158493262307 0.7862243447765886 6.704139436813384
H -7.214646775465843 1.4798135793868077 7.29794806359933
H -7.489256608110389 0.8299104150330123 5.943787596971443
O -2.2914945548777297 -6.719452729678091 -5.329063323101398
H -2.423503947823717 -5.957780120457275 -5.913354101256238
H -1.8703774869896304 -7.380931810438212 -5.898332842002661
O 4.691641286776617 10.699023414283955 0.9874523024526949
H 5.079361440817966 9.874445908474856 1.3171679010582165
H 5.300672061792312 10.980956397647164 0.2884835962320931
O 8.521824546146489 -9.586851118718611 -1.8121313623495974
H 8.030221046113725 -10.420900153232328 -1.8528199809335621
H 8.817167510544753 -9.53395042306111 -0.8907541355421404
O 7.2651676195536465 -3.921442963694293 8.020663826534351
H 6.417688325185836 -3.6674538737167155 8.415930501945018
H 7.767617515938319 -3.0933802315359946 7.992060373358788
O 10.13772124419057 -2.103095744461625 -6.220539896775534
H 10.779443410718859 -2.6100027346513763 -5.700727121650675
H 10.56647077936121 -1.9973838297340007 -7.083071502848947
O 5.745096414734827 -6.704104219731238 11.026291748629676
H 5.63592127982859 -6.999601284022189 11.942659377812216
H 5.141900043139948 -7.272076022213156 10.523773974635349
O -9.144577740819948 0.5054296757945547 2.4934856009494237
H -8.276446272948775 0.0911694794082265 2.6105479821049524
H -9.517032535056277 0.05413480241354707 1.72110466655863
O -8.56078605291085 -7.887546609673647 8.731849426461984
H -9.505937176805116 -8.095344539180497 8.781616186393393
H -8.435143364101968 -7.58605267920687 7.819557110950903
O -7.125954234802238 0.15336625510044133 -2.519541844395844
H -6.6291775249524765 0.8182423876043581 -2.01942187291152
H -8.02369197159051 0.212259105253628 -2.1595966646154983
O -4.56967091852186 6.569207346603816 5.5523341674821305
H -4.16184925448103 6.562448740255248 4.673355687381966
H -5.519772403594805 6.514336797216034 5.369965488230275
O 7.468177218735207 -4.808552149838437 3.7190279610123773
H 6.849696639633825 -5.49289212354299 3.422164472916466
H 6.97670400642969 -3.981805110288083 3.60110697695601
O 7.967275547949374 -6.54538822682238 -9.700616907582146
H 8.897909764210878 -6.295952219361759 -9.803907713588496
H 7.508918987531354 -6.024718488589265 -10.377207057902131
O 7.104041531907077 8.301971782388721 -12.789393696631606
H 7.983782380784128 8.705554127774423 -12.743082939673194
H 6.879588145747434 8.123065560445262 -11.86388022536747
O -2.738875242142153 -2.04755795418171 6.708490655463422
H -3.5375023983378497 -2.595858859411167 6.6855093671763335
H -2.6634988715001215 -1.7826394959812513 7.637521633178118
O 3.208004936851871 -7.080676066972543 -7.6183432067001196
H 3.4182739393995294 -7.437204125268837 -6.742191366483432
H 3.6840784494039807 -7.663613257008436 -8.228671141026702
O 1.9402926946240404 3.067091860914286 -9.071980908904141
H 2.843216227615151 3.1328129954391093 -8.726470875840526
H 1.7811227479857785 2.113076313675441 -9.1309826717061
O 2.386066994397791 -8.593823240976663 -3.1315775145558726
H 1.5252885013366844 -8.745597253134342 -3.5498984344451516
H 2.168904049317638 -8.121104147762075 -2.314057570765818
O 4.379701819265119 3.526074123366328 -0.9223569406190346
H 3.949119902539782 3.616090238607324 -1.7857593200957511
H 5.10945629351904 4.162630257112566 -0.9572373104052911
O 5.02263458573569 1.6219748871011839 13.027587157190062
H 5.2661406570586164 0.7162783645284809 13.271279502430097
H 4.146308030433832 1.743167206222044 13.422968156428631
O 2.202260587164032 -8.545232305988346 -0.33084542742223166
H 1.2423406937947592 -8.648896409717834 -0.2485355931866604
H 2.448687903833164 -8.021964063656931 0.44660287855485503
C 3.057398132221696 -4.868981617687813 6.532768453199733
O 3.723395880803764 -3.8976489446016975 6.318810292852898
O 2.3914003836396285 -5.840314290773926 6.746726613546566