146

C -5.3564454929577465 1.0091607042253532 -0.0734429577464788
C -4.079135492957747 0.16955070422535368 -0.19788295774647868
C -4.333545492957747 -1.2789292957746463 0.3017270422535212
C -3.1403854929577464 -2.1745492957746464 0.7330270422535212
C -2.905235492957746 0.902300704225353 0.41966704225352136
C -2.7423854929577463 1.056130704225354 1.8024770422535212
C -1.8861754929577463 1.3499307042253532 -0.4326129577464788
C -1.5304554929577463 1.5279207042253526 2.3254170422535214
H -3.5237954929577464 0.7301007042253529 2.484817042253521
C -0.6776454929577462 1.8010507042253527 0.08546704225352131
H -1.9759254929577463 1.2426607042253535 -1.5115229577464788
C -0.4680254929577463 1.8513207042253539 1.4698070422535212
H -1.3950654929577464 1.5446707042253527 3.404047042253521
H 0.1461845070422536 1.9972507042253538 -0.6030529577464789
C -1.8679654929577463 -2.0866092957746467 -0.08765295774647863
C -0.6628654929577462 -1.814079295774647 0.5787970422535212
C -1.8438954929577462 -2.213429295774647 -1.4808029577464787
C 0.5129345070422537 -1.5763292957746469 -0.13022295774647863
H -0.6401854929577462 -1.7032692957746463 1.6609470422535213
C -0.6547954929577462 -1.9962392957746466 -2.1933129577464787
H -2.7578654929577464 -2.4351492957746466 -2.026182957746479
C 0.5308845070422537 -1.645769295774647 -1.5261029577464789
H 1.4044045070422537 -1.2610992957746463 0.41551704225352126
H -0.6795654929577464 -2.0467992957746466 -3.2793129577464786
C 1.7843245070422535 -1.2521692957746469 -2.2771629577464787
H 1.4981245070422535 -0.9384492957746469 -3.290282957746479
H 2.241984507042254 -0.38631929577464685 -1.8135029577464787
C 0.9385645070422537 2.0647807042253534 1.9815670422535212
H 1.0508945070422537 1.5807407042253532 2.9609770422535213
H 1.6053245070422537 1.5496207042253536 1.3096170422535214
C 3.9676945070422533 -1.6881692957746468 -3.314052957746479
H 4.795084507042254 -2.398849295774647 -3.4044129577464783
H 3.548404507042253 -1.4816192957746468 -4.303802957746479
H 4.307714507042253 -0.7637192957746466 -2.851282957746479
C 2.344694507042253 -3.565079295774647 -3.101282957746479
H 1.6334345070422536 -4.047909295774646 -2.4251929577464786
H 1.8561845070422536 -3.293109295774647 -4.041792957746479
H 3.1808045070422537 -4.243519295774647 -3.298122957746479
C 3.5156645070422536 -2.648489295774647 -1.1110629577464786
H 3.9311845070422535 -1.748249295774647 -0.6771029577464787
H 2.767184507042254 -3.1044092957746465 -0.45972295774647876
H 4.319224507042254 -3.371819295774647 -1.2863129577464787
C 2.963994507042253 3.381090704225353 2.401027042253521
H 3.3337945070422537 4.369820704225353 2.6912870422535216
H 3.120994507042253 2.671350704225353 3.2183370422535216
H 3.4665445070422534 3.0664207042253535 1.4881370422535212
C 1.2973745070422538 4.282440704225354 0.8488370422535213
H 1.7592145070422538 3.7367207042253527 0.02653704225352116
H 0.23311450704225378 4.4484607042253534 0.6605570422535213
H 1.7921845070422535 5.251370704225354 0.9736770422535213
C 0.7724845070422537 4.194670704225353 3.2772470422535216
H -0.2956954929577462 4.278220704225354 3.057857042253521
H 0.9298945070422537 3.612620704225354 4.190337042253521
H 1.2046345070422537 5.193640704225353 3.3918370422535213
N 2.876084507042253 -2.324759295774647 -2.4576629577464786
N 1.4527845070422536 3.504690704225353 2.1388470422535213
C -3.593905492957746 -3.637819295774647 0.8297870422535213
H -2.8952554929577463 -1.8680692957746468 1.7595270422535212
H -5.022615492957747 -1.2402792957746467 1.1579970422535213
H -4.898275492957747 -1.7933092957746464 -0.48931295774647876
H -3.883675492957746 0.07871070422535364 -1.2758929577464788
H -3.8751654929577466 -4.038529295774646 -0.1505529577464788
H -4.4603554929577465 -3.7321892957746465 1.4932570422535212
H -2.7953554929577464 -4.271929295774647 1.2313670422535212
H -5.648775492957746 1.147700704225353 0.9733970422535213
H -6.189795492957747 0.5254307042253537 -0.5943629577464788
H -5.2178854929577465 2.002970704225354 -0.5139729577464787
C 3.6710445070422537 1.0263707042253536 -0.27764295774647874
O 2.7356545070422538 1.6631507042253526 -0.7327029577464788
O 3.650814507042253 0.3883007042253537 0.7790570422535212
O 4.756604507042254 0.8696707042253538 -0.8334829577464786
O 2.346327613437451 -2.83295052754511 9.261198006867653
H 1.9987646056553587 -3.6925359377234743 9.542765467931531
H 2.6993903024273616 -2.4449804592230056 10.075929808155264
O 0.8364219329999187 -6.740631501768842 11.9923979878832
H 1.609954741056924 -6.70102001055889 12.574673937518396
H 0.6279355426271906 -5.810798290233151 11.816598192506259
O 2.128605554575217 -7.634423953525841 -9.74517013438339
H 1.7140918697234735 -8.50607305954527 -9.659300477657869
H 3.06952377017961 -7.806398062999591 -9.590058040997487
O 8.623000762769172 0.2775009619417874 -1.1336745048462846
H 8.588120124812804 -0.05287792872167252 -0.22339955374648635
H 7.712744608298701 0.5544849546052713 -1.317183483800521
O -8.966575192298166 -7.844710635317836 4.843672419258258
H -9.075813302676961 -6.899241683493383 4.661675569623868
H -8.006556773355719 -7.9758538157937595 4.832356686586261
O -10.656587465595276 10.5642361743966 -2.4993930908772835
H -10.86803944568621 10.87739363295852 -3.391686665415767
H -10.065758006298447 11.2461006685425 -2.1459198868714133
O 2.38742568446857 12.518578647159432 -3.0647611158582766
H 3.23934431794486 12.629446229895322 -2.6165308425230265
H 1.7646570350206119 13.010529161148146 -2.508788234009704
O 4.846925537077518 11.943101425450978 -2.857218503792847
H 4.212218732838091 12.49753948657543 -3.3354580524802517
H 5.459196104736813 11.641600174719784 -3.5451019910824395
O -1.9327457494177835 -1.404462799534659 7.865532989357176
H -1.409530142167991 -2.2152476745270686 7.95408055687755
H -2.7234491130884204 -1.6877593446814627 7.3823216458564005
O -8.93098485268266 -0.6785093643692419 6.185824546644092
H -9.519772016897326 0.08971621245181094 6.139710608685906
H -8.677864694536304 -0.835095340706006 5.263667856132861
O 8.334685635476607 4.267074070953214 -2.9313253937511887
H 7.4203514489030225 4.572204257573833 -3.03060238693536
H 8.48609046494024 4.288786426760858 -1.9744726906038501
O -6.3535720380652165 -2.0973417707590887 -5.080270967891834
H -6.627577271499258 -2.553363009962448 -4.270373987809681
H -5.551232291949519 -1.6202699857801788 -4.820241377114102
O 3.874298394572137 5.523183616184239 -4.348453538895317
H 4.100870760335997 5.379151578556865 -5.279521255073401
H 4.114422920126765 6.448415108877311 -4.189554698571938
O -3.9095039556792432 8.42935587501712 -1.0972526984412747
H -3.8380441510214567 8.348732986157788 -2.060248442466267
H -4.863135126907498 8.392291268222522 -0.9293963655700126
O 2.1427426926274116 -2.0970308233523545 5.8023731222606285
H 2.4167995785831873 -2.8203411519006565 5.218693116799098
H 2.214520242841931 -1.30710419740966 5.245753096379424
O 6.6007821037387595 2.6973406493266916 7.882307798961775
H 5.790484944456399 3.226022386745262 7.9359873209326475
H 7.232969148903967 3.1811885378301503 8.434750289195854
O 4.196459180805861 -0.09369091920268824 -9.17066351568244
H 4.4542760040443605 -0.9607331393148755 -8.82319318443366
H 4.899075913995333 0.49938895998528654 -8.864807458942458
O -1.7631609638134493 0.5059327497620858 5.151064595628866
H -1.3946434072520901 0.8758515860622085 5.967350220858423
H -1.1848113595640413 -0.24584211223012897 4.95280154702641
O -13.542947791141287 -3.1763334094974836 4.911254746394807
H -14.431972509101339 -2.9333232143866685 4.612008271347471
H -13.427537825709127 -2.675704795361833 5.7328467831670515
O -10.995625224274274 4.021762982821262 2.3691239938600397
H -11.905357729493254 4.3330852542872496 2.4892596219528826
H -11.064131025764256 3.367680367340204 1.6574746198086943
O -2.715904346824619 -6.0399943256644875 -6.744203553829222
H -2.1783425222916337 -6.83803556834763 -6.858767146132861
H -2.98170413320031 -5.805377217009161 -7.646016855011264
O 0.4561473369455533 -1.7351520038975339 8.60377383945796
H -0.40449514103980455 -1.3728325632643537 8.862591352247346
H 1.0568051206658382 -1.4326833515666688 9.301401881836838
O 11.15297714438826 -0.02828391067098207 -0.38852774536679924
H 12.024002764636695 0.18508698046886635 -0.7556170922362204
H 11.351029551482739 -0.6077880447112449 0.362413095827983
O -8.545036324871523 -5.113289073725847 -3.201112469282532
H -8.988464936776529 -5.500717579305829 -2.4315427348802086
H -9.110277616278479 -5.3633292230559615 -3.9473993782602848
C -1.8371166170407274 7.746353318698353 -6.206660265541765
O -2.41888151058359 7.9491509808510346 -5.180384973933091
O -1.2553517234978662 7.543555656545672 -7.232935557150438