146

C -5.3564454929577465 1.0091607042253532 -0.0734429577464788
C -4.079135492957747 0.16955070422535368 -0.19788295774647868
C -4.333545492957747 -1.2789292957746463 0.3017270422535212
C -3.1403854929577464 -2.1745492957746464 0.7330270422535212
C -2.905235492957746 0.902300704225353 0.41966704225352136
C -2.7423854929577463 1.056130704225354 1.8024770422535212
C -1.8861754929577463 1.3499307042253532 -0.4326129577464788
C -1.5304554929577463 1.5279207042253526 2.3254170422535214
H -3.5237954929577464 0.7301007042253529 2.484817042253521
C -0.6776454929577462 1.8010507042253527 0.08546704225352131
H -1.9759254929577463 1.2426607042253535 -1.5115229577464788
C -0.4680254929577463 1.8513207042253539 1.4698070422535212
H -1.3950654929577464 1.5446707042253527 3.404047042253521
H 0.1461845070422536 1.9972507042253538 -0.6030529577464789
C -1.8679654929577463 -2.0866092957746467 -0.08765295774647863
C -0.6628654929577462 -1.814079295774647 0.5787970422535212
C -1.8438954929577462 -2.213429295774647 -1.4808029577464787
C 0.5129345070422537 -1.5763292957746469 -0.13022295774647863
H -0.6401854929577462 -1.7032692957746463 1.6609470422535213
C -0.6547954929577462 -1.9962392957746466 -2.1933129577464787
H -2.7578654929577464 -2.4351492957746466 -2.026182957746479
C 0.5308845070422537 -1.645769295774647 -1.5261029577464789
H 1.4044045070422537 -1.2610992957746463 0.41551704225352126
H -0.6795654929577464 -2.0467992957746466 -3.2793129577464786
C 1.7843245070422535 -1.2521692957746469 -2.2771629577464787
H 1.4981245070422535 -0.9384492957746469 -3.290282957746479
H 2.241984507042254 -0.38631929577464685 -1.8135029577464787
C 0.9385645070422537 2.0647807042253534 1.9815670422535212
H 1.0508945070422537 1.5807407042253532 2.9609770422535213
H 1.6053245070422537 1.5496207042253536 1.3096170422535214
C 3.9676945070422533 -1.6881692957746468 -3.314052957746479
H 4.795084507042254 -2.398849295774647 -3.4044129577464783
H 3.548404507042253 -1.4816192957746468 -4.303802957746479
H 4.307714507042253 -0.7637192957746466 -2.851282957746479
C 2.344694507042253 -3.565079295774647 -3.101282957746479
H 1.6334345070422536 -4.047909295774646 -2.4251929577464786
H 1.8561845070422536 -3.293109295774647 -4.041792957746479
H 3.1808045070422537 -4.243519295774647 -3.298122957746479
C 3.5156645070422536 -2.648489295774647 -1.1110629577464786
H 3.9311845070422535 -1.748249295774647 -0.6771029577464787
H 2.767184507042254 -3.1044092957746465 -0.45972295774647876
H 4.319224507042254 -3.371819295774647 -1.2863129577464787
C 2.963994507042253 3.381090704225353 2.401027042253521
H 3.3337945070422537 4.369820704225353 2.6912870422535216
H 3.120994507042253 2.671350704225353 3.2183370422535216
H 3.4665445070422534 3.0664207042253535 1.4881370422535212
C 1.2973745070422538 4.282440704225354 0.8488370422535213
H 1.7592145070422538 3.7367207042253527 0.02653704225352116
H 0.23311450704225378 4.4484607042253534 0.6605570422535213
H 1.7921845070422535 5.251370704225354 0.9736770422535213
C 0.7724845070422537 4.194670704225353 3.2772470422535216
H -0.2956954929577462 4.278220704225354 3.057857042253521
H 0.9298945070422537 3.612620704225354 4.190337042253521
H 1.2046345070422537 5.193640704225353 3.3918370422535213
N 2.876084507042253 -2.324759295774647 -2.4576629577464786
N 1.4527845070422536 3.504690704225353 2.1388470422535213
C -3.593905492957746 -3.637819295774647 0.8297870422535213
H -2.8952554929577463 -1.8680692957746468 1.7595270422535212
H -5.022615492957747 -1.2402792957746467 1.1579970422535213
H -4.898275492957747 -1.7933092957746464 -0.48931295774647876
H -3.883675492957746 0.07871070422535364 -1.2758929577464788
H -3.8751654929577466 -4.038529295774646 -0.1505529577464788
H -4.4603554929577465 -3.7321892957746465 1.4932570422535212
H -2.7953554929577464 -4.271929295774647 1.2313670422535212
H -5.648775492957746 1.147700704225353 0.9733970422535213
H -6.189795492957747 0.5254307042253537 -0.5943629577464788
H -5.2178854929577465 2.002970704225354 -0.5139729577464787
C 3.6710445070422537 1.0263707042253536 -0.27764295774647874
O 2.7356545070422538 1.6631507042253526 -0.7327029577464788
O 3.650814507042253 0.3883007042253537 0.7790570422535212
O 4.756604507042254 0.8696707042253538 -0.8334829577464786
O -10.775797963263813 -0.5004508362140678 3.54477907419831
H -11.48705030238793 -0.9759773311955999 3.9997098596602862
H -10.111210445395706 -0.3569978347121474 4.235218508004057
O -2.0483833227442294 8.512283702366346 -3.784420487528823
H -1.777578084387208 7.969897634031781 -3.0284778755171895
H -2.4480307214060293 7.876864792787192 -4.397190191734321
O -7.549120416960444 -7.648297956437333 -0.8389430356686627
H -8.353521946241143 -7.270069524463095 -0.4531337695316444
H -7.117064520938757 -8.090296649471295 -0.09266774975255565
O -8.752927783327253 0.3411341362709541 -2.4703245710078923
H -9.193290974455186 0.3577411105351056 -1.6073229341581046
H -8.380767358221366 -0.551812465317528 -2.526046460751389
O -9.018379156295845 -6.6498988421301926 6.936075711158698
H -9.288023263535619 -5.72510805315402 6.831092812762359
H -8.050174575843304 -6.614855195690758 6.918361944338913
O 6.890489381893875 -0.443146968699649 9.75008806276897
H 6.888160983003598 -1.0141960555841525 10.53294493080232
H 6.680837363760414 0.43553360970804 10.100699552486144
O -0.13235910308111443 2.9781452413279195 6.4284697347168915
H -0.5403912556467658 3.5947356812301576 5.802136477741177
H 0.7898637119684067 2.9235893036980425 6.136081853005866
O -4.101975012073368 1.6559710467915851 -8.995608102395794
H -4.1048019197041805 1.6193932400774425 -9.963916642866872
H -3.6633800533609304 2.4962768043436663 -8.794405119523129
O 8.676229098887841 -0.31359919378822876 -1.4925265799110687
H 8.948275549966286 -1.1956922782085928 -1.1977896196000277
H 9.423362728640452 0.2544580671066383 -1.2515613709341138
O -7.132609914400852 4.123561383912047 -4.9725205785595525
H -7.772271613394595 3.9702228656895158 -5.684059450702009
H -7.01400925165245 3.2492301872704 -4.571969975420791
O 2.3490189892313627 8.645252518912438 -7.662659613245488
H 2.4153589463746052 8.591024082811193 -6.697452048156896
H 3.269868710643535 8.613940645458387 -7.962688447619659
O 4.948035572954447 -3.1771527339622763 3.895548257301616
H 4.680456768146543 -2.866380732626178 3.0176019586573695
H 5.912713689507144 -3.0857912326941515 3.892208821664296
O -2.1589901812889054 -0.7776183706443903 4.717524481228716
H -1.9879691811081726 -0.7992720679921032 3.7639783146545143
H -2.600131052532839 -1.6218381626620515 4.895427878565021
O 1.0775764748563041 -3.2053234436916735 5.216441303413135
H 1.3751532364560566 -2.594447204349807 5.90727098435001
H 1.8723280683536347 -3.7136947711991053 4.995329471296931
O 1.3800841521819243 11.759440743631412 4.960031545058802
H 0.8293323758096457 12.527070226252514 5.175402887473813
H 1.023257673253944 11.444819874275556 4.115845240501791
O 2.729498657750268 0.056459865231579975 -14.346024434473515
H 2.506491192602762 0.7361490292465591 -14.999673933600612
H 2.091427560089963 -0.6521825640758534 -14.518225264947214
O -11.339145165648953 0.5938956845756622 6.224184175056386
H -11.701235361277675 0.4151223730580056 7.10503498547695
H -10.743244291670813 1.3450834949325732 6.364116180913799
O -8.407838645918288 5.604421553840159 8.969370867799975
H -8.949097365156979 5.545569008412393 9.770958500966039
H -7.51862711030951 5.36271395364784 9.269107794536655
O -8.841925555933823 2.6464535647156913 8.551780365257388
H -9.41924910860569 2.0225646479332275 9.016998047580767
H -8.995420092387922 2.4532799762066664 7.614718288188163
O 2.5524208894293556 5.617204719373028 8.515044285288027
H 3.406029763695299 5.714114850869162 8.06679471965764
H 1.998720000585879 6.304598096362754 8.115209800451359
O -5.476785910492205 2.8012597432226327 -5.9051741418689945
H -6.199586805015695 3.1515687495112146 -5.363131870556923
H -4.745888602085257 3.417549316613836 -5.7472557116818646
O 1.5279723138404209 -4.640115786418916 9.320319263909832
H 1.205941470736648 -3.925661925106038 9.890248358661971
H 2.0179591235516767 -4.179951993358372 8.622376462410227
O 8.0985728849696 6.5016097746707455 2.9021007158056285
H 8.332398723818812 6.448727089975154 3.840981035998703
H 8.724352122467018 7.147372790083851 2.5410572029962655
O -5.625687118221606 3.733392412509377 2.844204166397606
H -6.0187065542521765 4.0619681180671225 2.021682990062647
H -6.35416681653505 3.268135924009098 3.2821718288494597
C 1.2748249043313453 -8.538454757354543 -4.97187550393108
O 0.7377414277637022 -7.4788579248660785 -4.824857991102075
O 1.8119083808989884 -9.598051589843006 -5.118893016760086