146

C -5.3564454929577465 1.0091607042253532 -0.0734429577464788
C -4.079135492957747 0.16955070422535368 -0.19788295774647868
C -4.333545492957747 -1.2789292957746463 0.3017270422535212
C -3.1403854929577464 -2.1745492957746464 0.7330270422535212
C -2.905235492957746 0.902300704225353 0.41966704225352136
C -2.7423854929577463 1.056130704225354 1.8024770422535212
C -1.8861754929577463 1.3499307042253532 -0.4326129577464788
C -1.5304554929577463 1.5279207042253526 2.3254170422535214
H -3.5237954929577464 0.7301007042253529 2.484817042253521
C -0.6776454929577462 1.8010507042253527 0.08546704225352131
H -1.9759254929577463 1.2426607042253535 -1.5115229577464788
C -0.4680254929577463 1.8513207042253539 1.4698070422535212
H -1.3950654929577464 1.5446707042253527 3.404047042253521
H 0.1461845070422536 1.9972507042253538 -0.6030529577464789
C -1.8679654929577463 -2.0866092957746467 -0.08765295774647863
C -0.6628654929577462 -1.814079295774647 0.5787970422535212
C -1.8438954929577462 -2.213429295774647 -1.4808029577464787
C 0.5129345070422537 -1.5763292957746469 -0.13022295774647863
H -0.6401854929577462 -1.7032692957746463 1.6609470422535213
C -0.6547954929577462 -1.9962392957746466 -2.1933129577464787
H -2.7578654929577464 -2.4351492957746466 -2.026182957746479
C 0.5308845070422537 -1.645769295774647 -1.5261029577464789
H 1.4044045070422537 -1.2610992957746463 0.41551704225352126
H -0.6795654929577464 -2.0467992957746466 -3.2793129577464786
C 1.7843245070422535 -1.2521692957746469 -2.2771629577464787
H 1.4981245070422535 -0.9384492957746469 -3.290282957746479
H 2.241984507042254 -0.38631929577464685 -1.8135029577464787
C 0.9385645070422537 2.0647807042253534 1.9815670422535212
H 1.0508945070422537 1.5807407042253532 2.9609770422535213
H 1.6053245070422537 1.5496207042253536 1.3096170422535214
C 3.9676945070422533 -1.6881692957746468 -3.314052957746479
H 4.795084507042254 -2.398849295774647 -3.4044129577464783
H 3.548404507042253 -1.4816192957746468 -4.303802957746479
H 4.307714507042253 -0.7637192957746466 -2.851282957746479
C 2.344694507042253 -3.565079295774647 -3.101282957746479
H 1.6334345070422536 -4.047909295774646 -2.4251929577464786
H 1.8561845070422536 -3.293109295774647 -4.041792957746479
H 3.1808045070422537 -4.243519295774647 -3.298122957746479
C 3.5156645070422536 -2.648489295774647 -1.1110629577464786
H 3.9311845070422535 -1.748249295774647 -0.6771029577464787
H 2.767184507042254 -3.1044092957746465 -0.45972295774647876
H 4.319224507042254 -3.371819295774647 -1.2863129577464787
C 2.963994507042253 3.381090704225353 2.401027042253521
H 3.3337945070422537 4.369820704225353 2.6912870422535216
H 3.120994507042253 2.671350704225353 3.2183370422535216
H 3.4665445070422534 3.0664207042253535 1.4881370422535212
C 1.2973745070422538 4.282440704225354 0.8488370422535213
H 1.7592145070422538 3.7367207042253527 0.02653704225352116
H 0.23311450704225378 4.4484607042253534 0.6605570422535213
H 1.7921845070422535 5.251370704225354 0.9736770422535213
C 0.7724845070422537 4.194670704225353 3.2772470422535216
H -0.2956954929577462 4.278220704225354 3.057857042253521
H 0.9298945070422537 3.612620704225354 4.190337042253521
H 1.2046345070422537 5.193640704225353 3.3918370422535213
N 2.876084507042253 -2.324759295774647 -2.4576629577464786
N 1.4527845070422536 3.504690704225353 2.1388470422535213
C -3.593905492957746 -3.637819295774647 0.8297870422535213
H -2.8952554929577463 -1.8680692957746468 1.7595270422535212
H -5.022615492957747 -1.2402792957746467 1.1579970422535213
H -4.898275492957747 -1.7933092957746464 -0.48931295774647876
H -3.883675492957746 0.07871070422535364 -1.2758929577464788
H -3.8751654929577466 -4.038529295774646 -0.1505529577464788
H -4.4603554929577465 -3.7321892957746465 1.4932570422535212
H -2.7953554929577464 -4.271929295774647 1.2313670422535212
H -5.648775492957746 1.147700704225353 0.9733970422535213
H -6.189795492957747 0.5254307042253537 -0.5943629577464788
H -5.2178854929577465 2.002970704225354 -0.5139729577464787
C 3.6710445070422537 1.0263707042253536 -0.27764295774647874
O 2.7356545070422538 1.6631507042253526 -0.7327029577464788
O 3.650814507042253 0.3883007042253537 0.7790570422535212
O 4.756604507042254 0.8696707042253538 -0.8334829577464786
O 15.32746501824563 1.4044039232611967 5.681741994039881
H 15.127177519426308 1.4062434840809566 4.7336655779569305
H 14.504388750421194 1.1021854306616232 6.094260338329004
O 9.969820361152708 2.194135032477328 -0.06980767139214383
H 10.929251470247294 2.2308122454228982 0.06101314442887473
H 9.615625874902571 2.7543261868319533 0.6370827591505499
O -5.349384271531372 5.014981357077839 -1.5597475455792402
H -5.8223311571747125 5.739467744818532 -1.996105282119697
H -5.906368803542412 4.79760892049789 -0.7971995803890253
O 7.291500853683873 -2.05977371201039 -5.465706738585686
H 7.157540803200329 -2.1389137451687614 -6.4221370376279845
H 6.456128947017101 -1.6904323593909618 -5.1421287926481245
O 6.192930405045324 -7.760319013470028 -9.57824409745742
H 6.885151882495759 -7.137588212822054 -9.84657809265868
H 5.5442715122033 -7.713000774595532 -10.296550835074976
O 4.231275586748811 -13.437152844647695 4.584749390348534
H 4.341508300322623 -14.040625459148291 3.834658123031037
H 3.7321244022227584 -12.69329703775627 4.215305784584208
O -5.106450355569944 -9.177079884075873 -2.9375463563145887
H -4.606630576046593 -9.238467411378231 -3.765422625082412
H -5.709006533242426 -9.935207975743253 -2.971158759880879
O 1.7758010415009013 -0.5632060842382471 6.311464005408218
H 2.5397328867012434 -0.16863075541146966 6.7583261795402905
H 1.0183772879313377 -0.27025073495380303 6.840092764703645
O 2.368792978584932 7.491685777645758 1.0889840683734406
H 3.1828061188473264 7.991607411913033 1.2515519740980725
H 2.096903709779927 7.76937393091005 0.2013312875264781
O -8.992805793354542 -2.617251625621943 -8.730402696241722
H -9.213272994325955 -2.4442439119660895 -7.80280908845251
H -9.387944888578357 -3.484197397412012 -8.90712866632259
O -5.314638086940759 -1.6443441122101423 7.048827885074107
H -4.93018928908044 -0.790202200565493 7.297037621981788
H -5.303686943643408 -2.1542352917822205 7.8727532468363695
O 0.11873467522242898 4.1366629613179775 9.932852447241391
H -0.5425577050577086 4.263021704099939 10.629769381176844
H -0.40777891921237774 4.0431852430688755 9.124763779231325
O -8.277880734521531 10.245012906205945 0.5345534162881806
H -8.60182086516368 11.122957021044508 0.7860375706197837
H -8.94477512957896 9.91902494289213 -0.08829942180079708
O 0.03940854842175234 -0.4967709326780927 11.855919459540416
H 0.5672876929690247 0.3155709458483935 11.876208324567813
H -0.8698085771834103 -0.18224931257207144 11.740323986912085
O -12.57592079781442 1.6097352075057705 -5.899032169837046
H -12.299816149988235 2.3784957622258345 -5.377744543036566
H -13.301766355952575 1.9461479793892744 -6.4457831341203935
O -7.597220786706304 6.780990764057191 -3.9919676956094596
H -7.157220650507194 6.887038541801164 -3.13515902041976
H -6.890602533760939 6.930228063116044 -4.638017861985152
O -9.035233350721384 -5.227703285633465 -14.29991049917571
H -9.089341052887624 -4.828134050055022 -15.181037129941995
H -8.787191121496878 -4.489675689581346 -13.723063670037446
O -3.7048346364898714 10.316399920491175 5.672837471901405
H -3.512697017230094 9.91334508144716 6.53283589567228
H -4.657073240224747 10.178964514104429 5.557446419699055
O 4.4465825487162025 -5.0834019745752865 -3.143139281384339
H 4.472266268365773 -5.810132942469943 -3.783584285852215
H 4.5235618975355845 -5.525467490676432 -2.284294590168534
O 4.785189496459402 6.22240135296296 8.832637579373593
H 3.9016951793312025 6.135349974856724 8.444272794574582
H 5.365123239050289 5.776274517035249 8.197334781670282
O -0.8709010114902822 4.645706246281918 4.941614126343881
H -1.5399871929808324 4.300477182380686 4.331607624676664
H -0.6607738067616828 3.8900273869474735 5.510611458225092
O 5.582948528637725 4.07822336936947 -2.5996953835626124
H 5.542103170943577 4.183535460380324 -3.5620925869780002
H 5.700887884962598 3.1247589669660165 -2.4733708575231335
O -3.5021885614013084 6.478520784974909 -0.7472397882447714
H -4.326400101762381 6.589689531914393 -1.2445165756977274
H -3.712703548089025 6.8211721260083005 0.13436978700262103
O -1.7599707838031264 -7.326086250280088 -1.6414422147182726
H -1.5113999446088002 -6.862622266873739 -0.827574270339487
H -1.5961041747026552 -6.675517793456018 -2.3406348646420687
C -2.067600761447685 4.467829601806109 -1.2341244615541909
O -1.0696025721498619 3.8937008571359106 -0.9067194279922604
O -3.065598950745508 5.041958346476308 -1.5615294951161207