146

C -5.3564454929577465 1.0091607042253532 -0.0734429577464788
C -4.079135492957747 0.16955070422535368 -0.19788295774647868
C -4.333545492957747 -1.2789292957746463 0.3017270422535212
C -3.1403854929577464 -2.1745492957746464 0.7330270422535212
C -2.905235492957746 0.902300704225353 0.41966704225352136
C -2.7423854929577463 1.056130704225354 1.8024770422535212
C -1.8861754929577463 1.3499307042253532 -0.4326129577464788
C -1.5304554929577463 1.5279207042253526 2.3254170422535214
H -3.5237954929577464 0.7301007042253529 2.484817042253521
C -0.6776454929577462 1.8010507042253527 0.08546704225352131
H -1.9759254929577463 1.2426607042253535 -1.5115229577464788
C -0.4680254929577463 1.8513207042253539 1.4698070422535212
H -1.3950654929577464 1.5446707042253527 3.404047042253521
H 0.1461845070422536 1.9972507042253538 -0.6030529577464789
C -1.8679654929577463 -2.0866092957746467 -0.08765295774647863
C -0.6628654929577462 -1.814079295774647 0.5787970422535212
C -1.8438954929577462 -2.213429295774647 -1.4808029577464787
C 0.5129345070422537 -1.5763292957746469 -0.13022295774647863
H -0.6401854929577462 -1.7032692957746463 1.6609470422535213
C -0.6547954929577462 -1.9962392957746466 -2.1933129577464787
H -2.7578654929577464 -2.4351492957746466 -2.026182957746479
C 0.5308845070422537 -1.645769295774647 -1.5261029577464789
H 1.4044045070422537 -1.2610992957746463 0.41551704225352126
H -0.6795654929577464 -2.0467992957746466 -3.2793129577464786
C 1.7843245070422535 -1.2521692957746469 -2.2771629577464787
H 1.4981245070422535 -0.9384492957746469 -3.290282957746479
H 2.241984507042254 -0.38631929577464685 -1.8135029577464787
C 0.9385645070422537 2.0647807042253534 1.9815670422535212
H 1.0508945070422537 1.5807407042253532 2.9609770422535213
H 1.6053245070422537 1.5496207042253536 1.3096170422535214
C 3.9676945070422533 -1.6881692957746468 -3.314052957746479
H 4.795084507042254 -2.398849295774647 -3.4044129577464783
H 3.548404507042253 -1.4816192957746468 -4.303802957746479
H 4.307714507042253 -0.7637192957746466 -2.851282957746479
C 2.344694507042253 -3.565079295774647 -3.101282957746479
H 1.6334345070422536 -4.047909295774646 -2.4251929577464786
H 1.8561845070422536 -3.293109295774647 -4.041792957746479
H 3.1808045070422537 -4.243519295774647 -3.298122957746479
C 3.5156645070422536 -2.648489295774647 -1.1110629577464786
H 3.9311845070422535 -1.748249295774647 -0.6771029577464787
H 2.767184507042254 -3.1044092957746465 -0.45972295774647876
H 4.319224507042254 -3.371819295774647 -1.2863129577464787
C 2.963994507042253 3.381090704225353 2.401027042253521
H 3.3337945070422537 4.369820704225353 2.6912870422535216
H 3.120994507042253 2.671350704225353 3.2183370422535216
H 3.4665445070422534 3.0664207042253535 1.4881370422535212
C 1.2973745070422538 4.282440704225354 0.8488370422535213
H 1.7592145070422538 3.7367207042253527 0.02653704225352116
H 0.23311450704225378 4.4484607042253534 0.6605570422535213
H 1.7921845070422535 5.251370704225354 0.9736770422535213
C 0.7724845070422537 4.194670704225353 3.2772470422535216
H -0.2956954929577462 4.278220704225354 3.057857042253521
H 0.9298945070422537 3.612620704225354 4.190337042253521
H 1.2046345070422537 5.193640704225353 3.3918370422535213
N 2.876084507042253 -2.324759295774647 -2.4576629577464786
N 1.4527845070422536 3.504690704225353 2.1388470422535213
C -3.593905492957746 -3.637819295774647 0.8297870422535213
H -2.8952554929577463 -1.8680692957746468 1.7595270422535212
H -5.022615492957747 -1.2402792957746467 1.1579970422535213
H -4.898275492957747 -1.7933092957746464 -0.48931295774647876
H -3.883675492957746 0.07871070422535364 -1.2758929577464788
H -3.8751654929577466 -4.038529295774646 -0.1505529577464788
H -4.4603554929577465 -3.7321892957746465 1.4932570422535212
H -2.7953554929577464 -4.271929295774647 1.2313670422535212
H -5.648775492957746 1.147700704225353 0.9733970422535213
H -6.189795492957747 0.5254307042253537 -0.5943629577464788
H -5.2178854929577465 2.002970704225354 -0.5139729577464787
C 3.6710445070422537 1.0263707042253536 -0.27764295774647874
O 2.7356545070422538 1.6631507042253526 -0.7327029577464788
O 3.650814507042253 0.3883007042253537 0.7790570422535212
O 4.756604507042254 0.8696707042253538 -0.8334829577464786
O 4.253414690559046 -7.843714906100736 7.007941943581665
H 4.198044116539299 -7.814545435528794 6.040961799825199
H 4.044773746971791 -6.9379255304004115 7.281760328332281
O -3.329099911389222 8.770177929430798 3.488161005370185
H -3.270858700589073 8.263003585279494 4.311780761628635
H -4.262218360559466 9.02626286467412 3.436465647169059
O -10.707590706059339 6.1989544650588115 1.140913495846581
H -9.82830696960418 6.498792289399146 0.865369040630537
H -10.674138619610924 6.233819056701887 2.1087085993999155
O -5.991295156698616 8.821565785404134 -4.133081080548519
H -6.296224113222204 8.179063442659633 -3.4749196809349736
H -6.726223010004865 8.879118854224018 -4.761993347088201
O 9.767630511154039 6.885403354967092 -7.943645245136589
H 10.642102339171462 6.576157773725505 -8.224061987479873
H 9.92681586272045 7.279191733263234 -7.072695946230178
O -5.321682333602799 1.545871016106243 -4.088773459915554
H -5.913500385097146 2.0505341964658426 -3.510816865338791
H -4.601304068320148 1.269761504324975 -3.5024453634437354
O -4.4076216617507145 -5.374669573617044 -5.909078847782853
H -4.4138421669997925 -6.062530418185853 -6.591556774695902
H -4.596464340142606 -4.559083383212167 -6.397053799126296
O -3.5163047638594467 9.903082950259577 4.426610115870038
H -4.0126709279790305 10.73494005873688 4.4020797450413784
H -3.1536445799231996 9.87331772336099 5.324693389600822
O 7.053042882760183 -6.27314289846306 1.5240227413970249
H 6.854672495232353 -6.274945637992685 2.4725022068480427
H 6.709224869635698 -7.123438754965921 1.21137585661293
O 6.448453736404157 5.859801064614169 -11.310052043256874
H 5.523034041594304 6.1251566906360555 -11.420288775322792
H 6.761992757907981 6.404836676843881 -10.572765526564886
O -5.42461444990616 10.348589027558031 0.8766875782864807
H -6.093706238055388 11.02339745580895 1.0662057069517747
H -4.674968969059557 10.853786832115436 0.5277337480787551
O -10.942212885223888 -3.899936907234583 -7.353125234653876
H -11.2074986044064 -4.59062781227494 -7.978854343607865
H -10.040964213378597 -4.148537240563644 -7.098349548871704
O -4.633716527675157 3.1291576025675165 -6.5742774110833055
H -4.819022403686068 2.2009083251261616 -6.781599306080994
H -4.678921287124603 3.5744669832456255 -7.433706308376849
O -3.320305530579809 -8.580498485577857 8.534930163689776
H -3.5582678931100973 -8.626480316734556 7.596726058964966
H -4.079443422958406 -8.142011104409722 8.94772602269431
O -0.27761210981047757 7.037952142012452 14.073137780852148
H -0.936105877061761 7.062472677494057 14.783596828743656
H -0.0432118864653126 6.100310484898113 14.003520236801743
O 5.5269905633389245 -0.4409102565775327 7.001540618400761
H 5.508944969081896 -0.45598056009515453 6.032822599893932
H 5.546500315919559 0.5027974682930898 7.2206228948946745
O -4.971452521944636 -4.024968916517402 4.859961183973002
H -4.927148414765847 -3.8069800557559805 5.803086498854875
H -4.397563966345909 -3.366539824658097 4.440336350286843
O -4.718191029143496 8.050276703753505 -6.32521599154719
H -4.462138436572394 8.214635060721422 -5.405221014804152
H -5.684940331919238 8.115382403120144 -6.314308297354758
O 2.0751023672119784 -2.9918126791694526 -6.359566028988933
H 1.343710086668594 -2.6125201586119458 -6.869634527046479
H 1.7550437250164213 -2.9771382099430403 -5.4450666742549565
O 5.276003575296353 -4.4769101277096945 8.274840445003138
H 5.389578454726778 -4.58757528420587 7.318900422407555
H 4.706417968781712 -5.218066513192072 8.530225239793365
O -6.250328190565933 6.540797510398142 -1.1531732120129004
H -6.345252247795557 6.525106559965527 -0.1889582078081381
H -6.712872143452001 7.349131682466787 -1.4207753461871784
O 5.614795288744181 3.7739363319030708 11.545668571438815
H 6.042183083263807 3.8004575629230706 10.67641391697855
H 6.218669424365577 3.243927524839181 12.08732218498
O -0.7912329373345335 11.187581518409514 -9.521907694224664
H -0.2602313906218736 11.268047330065972 -10.328462073943248
H -0.2559187492337358 10.622635415173086 -8.944641235164417
O -4.186472439206909 2.6958245248716777 10.019183148408555
H -3.460686173702631 3.194431840749612 10.423648719574206
H -3.9567491156372245 2.6699061555878627 9.078163819679453
C 11.62977130549393 0.39686873120810806 -0.7557847774128365
O 12.368796438376558 0.8953574423455768 -1.5546396548069223
O 10.890746172611303 -0.10161997992936112 0.043070099981248444