146

C -5.3564454929577465 1.0091607042253532 -0.0734429577464788
C -4.079135492957747 0.16955070422535368 -0.19788295774647868
C -4.333545492957747 -1.2789292957746463 0.3017270422535212
C -3.1403854929577464 -2.1745492957746464 0.7330270422535212
C -2.905235492957746 0.902300704225353 0.41966704225352136
C -2.7423854929577463 1.056130704225354 1.8024770422535212
C -1.8861754929577463 1.3499307042253532 -0.4326129577464788
C -1.5304554929577463 1.5279207042253526 2.3254170422535214
H -3.5237954929577464 0.7301007042253529 2.484817042253521
C -0.6776454929577462 1.8010507042253527 0.08546704225352131
H -1.9759254929577463 1.2426607042253535 -1.5115229577464788
C -0.4680254929577463 1.8513207042253539 1.4698070422535212
H -1.3950654929577464 1.5446707042253527 3.404047042253521
H 0.1461845070422536 1.9972507042253538 -0.6030529577464789
C -1.8679654929577463 -2.0866092957746467 -0.08765295774647863
C -0.6628654929577462 -1.814079295774647 0.5787970422535212
C -1.8438954929577462 -2.213429295774647 -1.4808029577464787
C 0.5129345070422537 -1.5763292957746469 -0.13022295774647863
H -0.6401854929577462 -1.7032692957746463 1.6609470422535213
C -0.6547954929577462 -1.9962392957746466 -2.1933129577464787
H -2.7578654929577464 -2.4351492957746466 -2.026182957746479
C 0.5308845070422537 -1.645769295774647 -1.5261029577464789
H 1.4044045070422537 -1.2610992957746463 0.41551704225352126
H -0.6795654929577464 -2.0467992957746466 -3.2793129577464786
C 1.7843245070422535 -1.2521692957746469 -2.2771629577464787
H 1.4981245070422535 -0.9384492957746469 -3.290282957746479
H 2.241984507042254 -0.38631929577464685 -1.8135029577464787
C 0.9385645070422537 2.0647807042253534 1.9815670422535212
H 1.0508945070422537 1.5807407042253532 2.9609770422535213
H 1.6053245070422537 1.5496207042253536 1.3096170422535214
C 3.9676945070422533 -1.6881692957746468 -3.314052957746479
H 4.795084507042254 -2.398849295774647 -3.4044129577464783
H 3.548404507042253 -1.4816192957746468 -4.303802957746479
H 4.307714507042253 -0.7637192957746466 -2.851282957746479
C 2.344694507042253 -3.565079295774647 -3.101282957746479
H 1.6334345070422536 -4.047909295774646 -2.4251929577464786
H 1.8561845070422536 -3.293109295774647 -4.041792957746479
H 3.1808045070422537 -4.243519295774647 -3.298122957746479
C 3.5156645070422536 -2.648489295774647 -1.1110629577464786
H 3.9311845070422535 -1.748249295774647 -0.6771029577464787
H 2.767184507042254 -3.1044092957746465 -0.45972295774647876
H 4.319224507042254 -3.371819295774647 -1.2863129577464787
C 2.963994507042253 3.381090704225353 2.401027042253521
H 3.3337945070422537 4.369820704225353 2.6912870422535216
H 3.120994507042253 2.671350704225353 3.2183370422535216
H 3.4665445070422534 3.0664207042253535 1.4881370422535212
C 1.2973745070422538 4.282440704225354 0.8488370422535213
H 1.7592145070422538 3.7367207042253527 0.02653704225352116
H 0.23311450704225378 4.4484607042253534 0.6605570422535213
H 1.7921845070422535 5.251370704225354 0.9736770422535213
C 0.7724845070422537 4.194670704225353 3.2772470422535216
H -0.2956954929577462 4.278220704225354 3.057857042253521
H 0.9298945070422537 3.612620704225354 4.190337042253521
H 1.2046345070422537 5.193640704225353 3.3918370422535213
N 2.876084507042253 -2.324759295774647 -2.4576629577464786
N 1.4527845070422536 3.504690704225353 2.1388470422535213
C -3.593905492957746 -3.637819295774647 0.8297870422535213
H -2.8952554929577463 -1.8680692957746468 1.7595270422535212
H -5.022615492957747 -1.2402792957746467 1.1579970422535213
H -4.898275492957747 -1.7933092957746464 -0.48931295774647876
H -3.883675492957746 0.07871070422535364 -1.2758929577464788
H -3.8751654929577466 -4.038529295774646 -0.1505529577464788
H -4.4603554929577465 -3.7321892957746465 1.4932570422535212
H -2.7953554929577464 -4.271929295774647 1.2313670422535212
H -5.648775492957746 1.147700704225353 0.9733970422535213
H -6.189795492957747 0.5254307042253537 -0.5943629577464788
H -5.2178854929577465 2.002970704225354 -0.5139729577464787
C 3.6710445070422537 1.0263707042253536 -0.27764295774647874
O 2.7356545070422538 1.6631507042253526 -0.7327029577464788
O 3.650814507042253 0.3883007042253537 0.7790570422535212
O 4.756604507042254 0.8696707042253538 -0.8334829577464786
O 4.077581470418538 7.89128730524507 7.078697172263666
H 3.1607141276328443 7.709113540071959 6.8234828468119915
H 4.467541593087369 8.28632688968289 6.284444835940185
O -7.334512583753595 3.0028367551527984 -3.3012961067371656
H -7.084010201793469 3.5058076669593707 -2.511843020475056
H -6.9939973500800985 3.535243309351262 -4.0358398977958085
O -10.311277780296592 3.319235779896125 -1.5151336185300506
H -9.545167385233906 3.654951748483284 -2.0043544356591707
H -10.3918451910106 2.399370887233349 -1.8089352793104816
O 0.24424706292413934 -7.276334796436659 5.311842426534168
H 0.2591843835687424 -6.328072273462516 5.112989664736212
H 0.7996701585920456 -7.668985227636751 4.621702753730858
O -1.259465490802053 -12.228972941863026 -0.7100797513883403
H -1.851881976906093 -12.772996759426325 -1.2504945456121792
H -1.6785518477795836 -12.223582786297943 0.16359038997983344
O 3.0283343642004104 -6.416721135407393 -9.489395545101848
H 3.2652223154015165 -5.977844827680018 -10.320201805304148
H 3.8782775052359755 -6.5460123183886 -9.042358196203663
O 1.3520773526129661 7.504246104203198 3.1103670172223787
H 1.2197418622619978 7.4853735749696355 2.150628249362135
H 0.9977322078145083 6.654384601363523 3.4122558852663127
O -0.10832110734243727 -7.278660579418066 -1.1455636651989214
H 0.39111459904980816 -7.7394243175057404 -1.8363806523553996
H -0.4159464407653055 -7.990685130083825 -0.5647455888740778
O 15.279770960008724 -7.175315734525306 5.660832460327664
H 16.185416818874938 -7.099768444922482 5.324580259959923
H 15.108367663769155 -6.3126455007398565 6.067505451905381
O 5.096092899027068 -6.4307471330514465 -1.590042560348511
H 4.795034461124464 -6.410657501594439 -0.6692127277651148
H 5.62395443302211 -5.623293471115945 -1.6813811012573237
O 7.667910172301525 7.740168930414043 -4.507210872229629
H 7.703366364953393 7.58396726874347 -5.462884067518681
H 8.256201667355562 8.498180365815898 -4.3719565748964
O -6.472457972395195 -4.863060283065785 11.969271986321491
H -6.300576430971487 -5.52148898166988 12.659123957016892
H -5.678944697915041 -4.3069308126364625 11.973589351696763
O -8.646459996014164 -2.7022848303588494 -0.10901609914617946
H -8.648408062142984 -2.6946275464626943 0.8599549674712363
H -8.82618722770317 -1.7812861261097068 -0.3507214016548439
O -2.3559220350189314 -6.152061957239743 -4.970845591877628
H -2.9854768398754565 -5.489150778742588 -4.649634019848261
H -1.7977842674085591 -6.337312685989946 -4.200698629172179
O 1.697802757969388 -11.71413049810478 2.1847512280430093
H 2.253391548003113 -12.02841089986173 2.9138028602065704
H 1.209971866895927 -12.50333228633786 1.9052096328122134
O -1.9933980380392964 11.251273908242446 -3.8629399455377484
H -1.8443410230780979 11.787217481235837 -4.656359033887618
H -1.3867465366379605 11.628553906936144 -3.2082677353950015
O 0.25665825243132157 0.31436856725873774 -3.16223704642859
H -0.6089883256387549 -0.03085231138604505 -2.8968205742131445
H 0.7570171545371622 0.35395597724980277 -2.3333608491870255
O -6.026369665381419 3.1744133905909013 8.448197603981857
H -6.817788239353672 2.6251464173918935 8.343651968852857
H -6.367861212046863 4.0811956197178185 8.438634299340652
O -0.6496522116247472 -3.171621571657082 -5.986238105214545
H -0.7760478791636083 -3.3760552894524376 -5.047516449367735
H 0.23553884159187244 -3.5131859063091175 -6.183043971232212
O -0.775875106786204 16.68030450450364 -0.2941002595815574
H -0.4420006569589132 17.38099399760012 0.28601131840729366
H 0.01302217914811088 16.161966413297577 -0.5130263652663984
O -1.364249172930291 -3.9203652134370595 -8.757925703752035
H -2.2507596377673367 -3.666832360996329 -8.459953145673824
H -0.7757920300978007 -3.3124126054167613 -8.285618852488222
O 14.005136793546704 2.0639419950003544 -4.565480089277078
H 14.896982543144455 2.198000986883969 -4.211069730343291
H 13.484322240013494 1.7960502408926287 -3.7935033064596886
O 1.1172204986831593 -2.1198513569534905 -10.426799913499025
H 1.1616205002833073 -1.973588753442732 -11.383671507586843
H 0.35825822656142337 -2.7119229954230692 -10.315492282512828
O -0.33049685414942354 0.4163236834627715 8.434763316694564
H -1.2801825576168566 0.2683353696711741 8.55790502575647
H 0.029009991232069376 0.3902825307646953 9.334229064119112
C 0.8089406873877554 9.492654454459338 4.852784769163521
O 1.115820320219282 9.628014944782148 6.001836850625783
O 0.5020610545562278 9.357293964136526 3.70373268770126