146

C -5.3564454929577465 1.0091607042253532 -0.0734429577464788
C -4.079135492957747 0.16955070422535368 -0.19788295774647868
C -4.333545492957747 -1.2789292957746463 0.3017270422535212
C -3.1403854929577464 -2.1745492957746464 0.7330270422535212
C -2.905235492957746 0.902300704225353 0.41966704225352136
C -2.7423854929577463 1.056130704225354 1.8024770422535212
C -1.8861754929577463 1.3499307042253532 -0.4326129577464788
C -1.5304554929577463 1.5279207042253526 2.3254170422535214
H -3.5237954929577464 0.7301007042253529 2.484817042253521
C -0.6776454929577462 1.8010507042253527 0.08546704225352131
H -1.9759254929577463 1.2426607042253535 -1.5115229577464788
C -0.4680254929577463 1.8513207042253539 1.4698070422535212
H -1.3950654929577464 1.5446707042253527 3.404047042253521
H 0.1461845070422536 1.9972507042253538 -0.6030529577464789
C -1.8679654929577463 -2.0866092957746467 -0.08765295774647863
C -0.6628654929577462 -1.814079295774647 0.5787970422535212
C -1.8438954929577462 -2.213429295774647 -1.4808029577464787
C 0.5129345070422537 -1.5763292957746469 -0.13022295774647863
H -0.6401854929577462 -1.7032692957746463 1.6609470422535213
C -0.6547954929577462 -1.9962392957746466 -2.1933129577464787
H -2.7578654929577464 -2.4351492957746466 -2.026182957746479
C 0.5308845070422537 -1.645769295774647 -1.5261029577464789
H 1.4044045070422537 -1.2610992957746463 0.41551704225352126
H -0.6795654929577464 -2.0467992957746466 -3.2793129577464786
C 1.7843245070422535 -1.2521692957746469 -2.2771629577464787
H 1.4981245070422535 -0.9384492957746469 -3.290282957746479
H 2.241984507042254 -0.38631929577464685 -1.8135029577464787
C 0.9385645070422537 2.0647807042253534 1.9815670422535212
H 1.0508945070422537 1.5807407042253532 2.9609770422535213
H 1.6053245070422537 1.5496207042253536 1.3096170422535214
C 3.9676945070422533 -1.6881692957746468 -3.314052957746479
H 4.795084507042254 -2.398849295774647 -3.4044129577464783
H 3.548404507042253 -1.4816192957746468 -4.303802957746479
H 4.307714507042253 -0.7637192957746466 -2.851282957746479
C 2.344694507042253 -3.565079295774647 -3.101282957746479
H 1.6334345070422536 -4.047909295774646 -2.4251929577464786
H 1.8561845070422536 -3.293109295774647 -4.041792957746479
H 3.1808045070422537 -4.243519295774647 -3.298122957746479
C 3.5156645070422536 -2.648489295774647 -1.1110629577464786
H 3.9311845070422535 -1.748249295774647 -0.6771029577464787
H 2.767184507042254 -3.1044092957746465 -0.45972295774647876
H 4.319224507042254 -3.371819295774647 -1.2863129577464787
C 2.963994507042253 3.381090704225353 2.401027042253521
H 3.3337945070422537 4.369820704225353 2.6912870422535216
H 3.120994507042253 2.671350704225353 3.2183370422535216
H 3.4665445070422534 3.0664207042253535 1.4881370422535212
C 1.2973745070422538 4.282440704225354 0.8488370422535213
H 1.7592145070422538 3.7367207042253527 0.02653704225352116
H 0.23311450704225378 4.4484607042253534 0.6605570422535213
H 1.7921845070422535 5.251370704225354 0.9736770422535213
C 0.7724845070422537 4.194670704225353 3.2772470422535216
H -0.2956954929577462 4.278220704225354 3.057857042253521
H 0.9298945070422537 3.612620704225354 4.190337042253521
H 1.2046345070422537 5.193640704225353 3.3918370422535213
N 2.876084507042253 -2.324759295774647 -2.4576629577464786
N 1.4527845070422536 3.504690704225353 2.1388470422535213
C -3.593905492957746 -3.637819295774647 0.8297870422535213
H -2.8952554929577463 -1.8680692957746468 1.7595270422535212
H -5.022615492957747 -1.2402792957746467 1.1579970422535213
H -4.898275492957747 -1.7933092957746464 -0.48931295774647876
H -3.883675492957746 0.07871070422535364 -1.2758929577464788
H -3.8751654929577466 -4.038529295774646 -0.1505529577464788
H -4.4603554929577465 -3.7321892957746465 1.4932570422535212
H -2.7953554929577464 -4.271929295774647 1.2313670422535212
H -5.648775492957746 1.147700704225353 0.9733970422535213
H -6.189795492957747 0.5254307042253537 -0.5943629577464788
H -5.2178854929577465 2.002970704225354 -0.5139729577464787
C 3.6710445070422537 1.0263707042253536 -0.27764295774647874
O 2.7356545070422538 1.6631507042253526 -0.7327029577464788
O 3.650814507042253 0.3883007042253537 0.7790570422535212
O 4.756604507042254 0.8696707042253538 -0.8334829577464786
O -3.5080315151693773 0.6651368163656302 -11.467461732022196
H -3.427809300541746 0.46335834556469857 -12.411822469188602
H -2.592858850825515 0.7976225006048008 -11.17786117572191
O -4.96594268387523 0.5728655951307804 -7.808878567476107
H -5.164166306442992 -0.1386976092959131 -7.181700316528156
H -4.28168790896426 1.0941744171497083 -7.362790617182924
O -5.784916859249087 -5.376552898551052 -6.551893791848093
H -5.460802183932353 -5.107780698767945 -7.42463575759059
H -5.104345116288811 -5.05669483625243 -5.940767890771577
O -8.60399263464978 6.008013319414555 -6.603119585464775
H -7.737412784259073 6.3094121440672115 -6.291405825269914
H -9.23264955222552 6.462315628781272 -6.02229100835425
O 5.121201310394996 6.632397094602576 9.143967857853617
H 5.056198259530794 6.8584470132789015 8.203944775932342
H 5.119106486234865 7.491596818846078 9.592000657848914
O 4.03904877427861 -2.817144556333968 10.847592741034962
H 4.355540750609327 -2.698532003926317 11.755739892233281
H 4.309312264652435 -3.719823461967374 10.621560921603644
O -5.128597835881085 0.8905566699204366 13.43070329345426
H -6.073450421597965 1.0175152380698824 13.604203927855316
H -4.756620031797927 0.6830325563383681 14.301064252971315
O -8.928318669392354 -4.247086528120461 -8.050567876613615
H -8.495050215735908 -4.92360364893906 -7.5087465137960665
H -9.661533273873639 -4.7194942744175785 -8.472692513793003
O 4.528118602340223 4.066273212571424 -9.728820130937825
H 4.820105669187241 4.951179633805303 -9.463016565587166
H 4.299499175979303 3.6341088592742845 -8.892202491911688
O 8.992475023441296 -6.348350235088883 5.695361011225436
H 9.656378070300608 -5.974403372567669 6.293995996238392
H 9.51608016212442 -6.821789911402417 5.031542906669101
O 9.353496475339838 5.5885541039631565 2.1291242913535102
H 10.181431970061714 5.094737687230673 2.2272849761775886
H 9.63846158349758 6.467721299413002 1.8378823406020741
O 13.235683075932046 0.6012285051523363 -5.152363692027017
H 12.44581677819395 0.7584967176209747 -5.691200678456527
H 13.627688103676114 -0.19622787169790312 -5.538831452059158
O -10.620052441083033 -10.64005188745346 -1.1832967691131904
H -11.51718492481933 -10.68704260121881 -1.54649442376554
H -10.05219414148859 -10.595804943979598 -1.9672234900985952
O -9.335986523730389 2.7450138405266697 -5.788573365382998
H -9.20299303127318 3.033337416636438 -4.873068257083043
H -9.215577275857406 3.5537947304118283 -6.308512813283646
O 11.038072172473818 2.204279555423746 1.779435621590859
H 11.268587311060713 2.708310534462391 2.5742833428253173
H 11.46300244606146 2.6947597957181495 1.0598348011567253
O 2.917285436993872 -1.1940251514808338 7.800987207706168
H 2.101984309069069 -1.440329895903597 7.33883420211237
H 2.608408049783225 -0.8442594383382893 8.650234315372607
O 6.802706701412533 3.503581616391582 8.20798190399927
H 6.222515049124855 3.7533877200976558 8.942789303299852
H 7.0655740382113885 4.351140738247661 7.81874387592027
O -8.572735581527102 10.155579179277362 -2.5976195222907137
H -8.658747189563638 10.921586066103604 -3.184818644835817
H -9.409089559455591 10.14053662523413 -2.1084900001076345
O -7.935682323084928 4.851425951563703 -4.3273491618193844
H -8.055882388197983 4.9964291496175415 -3.3768264772920884
H -7.24732597194174 4.171098928421267 -4.3751259315196105
O 1.8061945828045525 -3.2172242384774545 9.24672686155933
H 1.6621708019167547 -3.537615738665707 8.343635618081736
H 2.4073072325305116 -3.871167744920662 9.634003787053476
O 9.716643540934594 -2.8506668553560455 1.6669866360573264
H 10.18971296721129 -3.2720570736489867 2.4002007649100543
H 10.387340690711854 -2.292332070358013 1.2458102532414577
O -2.8594560606110058 -12.628426386389222 -0.09227626708201564
H -3.1563980573059025 -11.990145055588027 -0.7581514432595808
H -3.1361136638609404 -12.234924760719252 0.7489008756525531
O 4.642078461567602 -6.07408351202244 -0.380202032440597
H 4.662616533986611 -6.682317871518204 -1.1342554180905067
H 4.898542839525875 -6.626707761147898 0.3733193052911217
O -3.008829845603788 13.418650547749644 -3.196033035689732
H -3.556795689929629 14.188103844451202 -2.9800644857863414
H -2.814808781162643 13.020199326755122 -2.3343170759088427
C -0.25027746287322916 0.4029613861099193 -12.90230132539916
O -0.8017179005446367 -0.24343148619483324 -12.059147747671839
O 0.3011629747981779 1.049354258414671 -13.745454903126479