146

C -5.3564454929577465 1.0091607042253532 -0.0734429577464788
C -4.079135492957747 0.16955070422535368 -0.19788295774647868
C -4.333545492957747 -1.2789292957746463 0.3017270422535212
C -3.1403854929577464 -2.1745492957746464 0.7330270422535212
C -2.905235492957746 0.902300704225353 0.41966704225352136
C -2.7423854929577463 1.056130704225354 1.8024770422535212
C -1.8861754929577463 1.3499307042253532 -0.4326129577464788
C -1.5304554929577463 1.5279207042253526 2.3254170422535214
H -3.5237954929577464 0.7301007042253529 2.484817042253521
C -0.6776454929577462 1.8010507042253527 0.08546704225352131
H -1.9759254929577463 1.2426607042253535 -1.5115229577464788
C -0.4680254929577463 1.8513207042253539 1.4698070422535212
H -1.3950654929577464 1.5446707042253527 3.404047042253521
H 0.1461845070422536 1.9972507042253538 -0.6030529577464789
C -1.8679654929577463 -2.0866092957746467 -0.08765295774647863
C -0.6628654929577462 -1.814079295774647 0.5787970422535212
C -1.8438954929577462 -2.213429295774647 -1.4808029577464787
C 0.5129345070422537 -1.5763292957746469 -0.13022295774647863
H -0.6401854929577462 -1.7032692957746463 1.6609470422535213
C -0.6547954929577462 -1.9962392957746466 -2.1933129577464787
H -2.7578654929577464 -2.4351492957746466 -2.026182957746479
C 0.5308845070422537 -1.645769295774647 -1.5261029577464789
H 1.4044045070422537 -1.2610992957746463 0.41551704225352126
H -0.6795654929577464 -2.0467992957746466 -3.2793129577464786
C 1.7843245070422535 -1.2521692957746469 -2.2771629577464787
H 1.4981245070422535 -0.9384492957746469 -3.290282957746479
H 2.241984507042254 -0.38631929577464685 -1.8135029577464787
C 0.9385645070422537 2.0647807042253534 1.9815670422535212
H 1.0508945070422537 1.5807407042253532 2.9609770422535213
H 1.6053245070422537 1.5496207042253536 1.3096170422535214
C 3.9676945070422533 -1.6881692957746468 -3.314052957746479
H 4.795084507042254 -2.398849295774647 -3.4044129577464783
H 3.548404507042253 -1.4816192957746468 -4.303802957746479
H 4.307714507042253 -0.7637192957746466 -2.851282957746479
C 2.344694507042253 -3.565079295774647 -3.101282957746479
H 1.6334345070422536 -4.047909295774646 -2.4251929577464786
H 1.8561845070422536 -3.293109295774647 -4.041792957746479
H 3.1808045070422537 -4.243519295774647 -3.298122957746479
C 3.5156645070422536 -2.648489295774647 -1.1110629577464786
H 3.9311845070422535 -1.748249295774647 -0.6771029577464787
H 2.767184507042254 -3.1044092957746465 -0.45972295774647876
H 4.319224507042254 -3.371819295774647 -1.2863129577464787
C 2.963994507042253 3.381090704225353 2.401027042253521
H 3.3337945070422537 4.369820704225353 2.6912870422535216
H 3.120994507042253 2.671350704225353 3.2183370422535216
H 3.4665445070422534 3.0664207042253535 1.4881370422535212
C 1.2973745070422538 4.282440704225354 0.8488370422535213
H 1.7592145070422538 3.7367207042253527 0.02653704225352116
H 0.23311450704225378 4.4484607042253534 0.6605570422535213
H 1.7921845070422535 5.251370704225354 0.9736770422535213
C 0.7724845070422537 4.194670704225353 3.2772470422535216
H -0.2956954929577462 4.278220704225354 3.057857042253521
H 0.9298945070422537 3.612620704225354 4.190337042253521
H 1.2046345070422537 5.193640704225353 3.3918370422535213
N 2.876084507042253 -2.324759295774647 -2.4576629577464786
N 1.4527845070422536 3.504690704225353 2.1388470422535213
C -3.593905492957746 -3.637819295774647 0.8297870422535213
H -2.8952554929577463 -1.8680692957746468 1.7595270422535212
H -5.022615492957747 -1.2402792957746467 1.1579970422535213
H -4.898275492957747 -1.7933092957746464 -0.48931295774647876
H -3.883675492957746 0.07871070422535364 -1.2758929577464788
H -3.8751654929577466 -4.038529295774646 -0.1505529577464788
H -4.4603554929577465 -3.7321892957746465 1.4932570422535212
H -2.7953554929577464 -4.271929295774647 1.2313670422535212
H -5.648775492957746 1.147700704225353 0.9733970422535213
H -6.189795492957747 0.5254307042253537 -0.5943629577464788
H -5.2178854929577465 2.002970704225354 -0.5139729577464787
C 3.6710445070422537 1.0263707042253536 -0.27764295774647874
O 2.7356545070422538 1.6631507042253526 -0.7327029577464788
O 3.650814507042253 0.3883007042253537 0.7790570422535212
O 4.756604507042254 0.8696707042253538 -0.8334829577464786
O -11.45519116558232 7.0557644483457835 4.336637486700176
H -11.703654647943617 7.445176913745081 5.188453890994282
H -11.083145839927905 6.192915403030753 4.573356190983634
O 2.795449993686689 -11.693108766695428 6.340616511816067
H 2.576304035533272 -11.591507826027375 5.402203140864658
H 1.9579758051638736 -11.95911263687435 6.749078099860632
O 9.964826041830626 -5.949552502746121 -0.5391473370001623
H 10.09965139804355 -6.223240759313343 -1.4588669782165784
H 9.727162601462966 -5.012546968175683 -0.6062193997161378
O 6.61164017216628 -8.227274518322927 -3.633057033999552
H 6.534792535523649 -8.180093636687491 -4.597855335226573
H 5.7100266905122 -8.421187507293862 -3.335646834598174
O -6.118331352169019 -0.9213508386625326 -3.3046298335118656
H -5.534325188639043 -1.401724240216674 -3.910555202627819
H -5.904469458333397 0.010410324037603003 -3.462889652634507
O 9.061270881156977 -3.065116936679387 6.1082710784388805
H 9.111051594942056 -3.0349127976121273 5.141018811748202
H 9.895062056739214 -2.665457806144507 6.398144842690314
O -2.3096106506487635 -7.399262667381027 -10.132211289351408
H -2.331585921534953 -7.3774040062999955 -11.100718720043204
H -3.240493955935659 -7.3197579826592065 -9.875117490621395
O -3.5371574117124878 -3.758183784788693 -5.225191088443406
H -3.0203566132761117 -2.9874998029270525 -5.504351421831606
H -3.216601144441799 -3.9430332814176663 -4.32962630161361
O 3.7331626442103665 8.139185581740753 -3.3582944140734674
H 3.6562818414606837 8.103829557422696 -4.3235957404027054
H 2.814444597964908 8.160669728043258 -3.0509549807744216
O -2.288204317463287 -9.7507611818724 4.325205422132728
H -2.7521299563239605 -10.230458102421315 5.027794365202294
H -2.754979134364109 -10.010602504557776 3.5167713174387734
O -3.45291345302127 7.567762844635478 -12.925723395892964
H -3.23445180532687 7.5237361786926495 -13.868752302169229
H -2.9659972886462116 6.825230651955633 -12.537753634179065
O -0.7802978004617556 -11.264133792304504 -12.215339698556377
H -0.847748942083042 -11.117491710500516 -13.170804925677793
H -1.1926816621592398 -10.477398485361297 -11.828107143467772
O 9.511778827952487 4.534877855566003 2.3841257571825474
H 9.51718765168316 3.749352672099626 1.81677376091747
H 9.687416487232696 4.184694907289428 3.270401820087833
O -4.753346833734064 -3.1028041922778486 -8.012303964863591
H -4.555567848826239 -3.4326677167088997 -7.122899172163013
H -5.141127611243587 -2.228498254463409 -7.856813965196335
O -1.769954841019005 -7.360289344806349 12.025478668571846
H -1.8217114213694288 -7.316611394478443 12.992112440972535
H -2.497918610472286 -6.795011538799008 11.726327040297996
O 4.399568834995146 -4.8748639384828305 -5.090557813632062
H 3.6945352094430963 -4.337965740999471 -4.698594461671638
H 4.062010353982122 -5.097725647417454 -5.971096782041136
O -6.46780954634908 -8.753556254653635 -1.6548017059694555
H -5.520511707983598 -8.607491512455889 -1.7971367101490108
H -6.672433875705872 -8.217987093909864 -0.8736125469333764
O -8.169748472856028 7.7316719459421215 -2.534204581753392
H -8.70467762521785 8.351401077456291 -3.052619437256356
H -8.088652112795833 6.955358766191692 -3.108419847686615
O -10.229314665357066 6.086171620616062 -0.605991034619493
H -10.101090449142374 5.493319281567017 -1.3616708685175567
H -11.192320938590953 6.1549102671765 -0.5231909109406994
O 3.9097610042246957 2.597863678254256 10.78565342632483
H 4.516369098936702 1.928385453090482 11.136071579909137
H 4.180612844034532 2.6979013341013083 9.860670349407066
O 7.378844516320257 -6.828362153227365 5.728726761449021
H 8.105595785259423 -7.4671269426092 5.6760058562852045
H 6.7750605945542315 -7.1019123126173245 5.021918986721999
O -2.30238384160487 -12.691988174506776 0.9907864769034926
H -2.1092765688623016 -13.06322197504654 0.11679425528436882
H -2.3073580250563186 -13.46359030051042 1.5769326710783322
O 1.0895892281834252 12.243382306830492 -0.4479310211833284
H 1.8398054271603659 12.670675141639457 -0.8878899340530546
H 1.1825817136483332 11.307809429060153 -0.6824896115772574
O 8.290720790846297 5.08348110920878 -2.524781160640151
H 8.023399533740484 4.6340314158924745 -3.3405640211963457
H 7.512674341328833 5.0108333464514825 -1.951782060065267
C 12.232699654343484 -2.302481016209672 2.547966304679394
O 12.930906891670261 -1.489787254132895 3.0816832335152746
O 11.534492417016708 -3.11517477828645 2.0142493758435127