146

C -5.3564454929577465 1.0091607042253532 -0.0734429577464788
C -4.079135492957747 0.16955070422535368 -0.19788295774647868
C -4.333545492957747 -1.2789292957746463 0.3017270422535212
C -3.1403854929577464 -2.1745492957746464 0.7330270422535212
C -2.905235492957746 0.902300704225353 0.41966704225352136
C -2.7423854929577463 1.056130704225354 1.8024770422535212
C -1.8861754929577463 1.3499307042253532 -0.4326129577464788
C -1.5304554929577463 1.5279207042253526 2.3254170422535214
H -3.5237954929577464 0.7301007042253529 2.484817042253521
C -0.6776454929577462 1.8010507042253527 0.08546704225352131
H -1.9759254929577463 1.2426607042253535 -1.5115229577464788
C -0.4680254929577463 1.8513207042253539 1.4698070422535212
H -1.3950654929577464 1.5446707042253527 3.404047042253521
H 0.1461845070422536 1.9972507042253538 -0.6030529577464789
C -1.8679654929577463 -2.0866092957746467 -0.08765295774647863
C -0.6628654929577462 -1.814079295774647 0.5787970422535212
C -1.8438954929577462 -2.213429295774647 -1.4808029577464787
C 0.5129345070422537 -1.5763292957746469 -0.13022295774647863
H -0.6401854929577462 -1.7032692957746463 1.6609470422535213
C -0.6547954929577462 -1.9962392957746466 -2.1933129577464787
H -2.7578654929577464 -2.4351492957746466 -2.026182957746479
C 0.5308845070422537 -1.645769295774647 -1.5261029577464789
H 1.4044045070422537 -1.2610992957746463 0.41551704225352126
H -0.6795654929577464 -2.0467992957746466 -3.2793129577464786
C 1.7843245070422535 -1.2521692957746469 -2.2771629577464787
H 1.4981245070422535 -0.9384492957746469 -3.290282957746479
H 2.241984507042254 -0.38631929577464685 -1.8135029577464787
C 0.9385645070422537 2.0647807042253534 1.9815670422535212
H 1.0508945070422537 1.5807407042253532 2.9609770422535213
H 1.6053245070422537 1.5496207042253536 1.3096170422535214
C 3.9676945070422533 -1.6881692957746468 -3.314052957746479
H 4.795084507042254 -2.398849295774647 -3.4044129577464783
H 3.548404507042253 -1.4816192957746468 -4.303802957746479
H 4.307714507042253 -0.7637192957746466 -2.851282957746479
C 2.344694507042253 -3.565079295774647 -3.101282957746479
H 1.6334345070422536 -4.047909295774646 -2.4251929577464786
H 1.8561845070422536 -3.293109295774647 -4.041792957746479
H 3.1808045070422537 -4.243519295774647 -3.298122957746479
C 3.5156645070422536 -2.648489295774647 -1.1110629577464786
H 3.9311845070422535 -1.748249295774647 -0.6771029577464787
H 2.767184507042254 -3.1044092957746465 -0.45972295774647876
H 4.319224507042254 -3.371819295774647 -1.2863129577464787
C 2.963994507042253 3.381090704225353 2.401027042253521
H 3.3337945070422537 4.369820704225353 2.6912870422535216
H 3.120994507042253 2.671350704225353 3.2183370422535216
H 3.4665445070422534 3.0664207042253535 1.4881370422535212
C 1.2973745070422538 4.282440704225354 0.8488370422535213
H 1.7592145070422538 3.7367207042253527 0.02653704225352116
H 0.23311450704225378 4.4484607042253534 0.6605570422535213
H 1.7921845070422535 5.251370704225354 0.9736770422535213
C 0.7724845070422537 4.194670704225353 3.2772470422535216
H -0.2956954929577462 4.278220704225354 3.057857042253521
H 0.9298945070422537 3.612620704225354 4.190337042253521
H 1.2046345070422537 5.193640704225353 3.3918370422535213
N 2.876084507042253 -2.324759295774647 -2.4576629577464786
N 1.4527845070422536 3.504690704225353 2.1388470422535213
C -3.593905492957746 -3.637819295774647 0.8297870422535213
H -2.8952554929577463 -1.8680692957746468 1.7595270422535212
H -5.022615492957747 -1.2402792957746467 1.1579970422535213
H -4.898275492957747 -1.7933092957746464 -0.48931295774647876
H -3.883675492957746 0.07871070422535364 -1.2758929577464788
H -3.8751654929577466 -4.038529295774646 -0.1505529577464788
H -4.4603554929577465 -3.7321892957746465 1.4932570422535212
H -2.7953554929577464 -4.271929295774647 1.2313670422535212
H -5.648775492957746 1.147700704225353 0.9733970422535213
H -6.189795492957747 0.5254307042253537 -0.5943629577464788
H -5.2178854929577465 2.002970704225354 -0.5139729577464787
C 3.6710445070422537 1.0263707042253536 -0.27764295774647874
O 2.7356545070422538 1.6631507042253526 -0.7327029577464788
O 3.650814507042253 0.3883007042253537 0.7790570422535212
O 4.756604507042254 0.8696707042253538 -0.8334829577464786
O -0.410486450806964 6.337492389437271 -5.5811657475433964
H -0.7281693639881237 6.3214555050273695 -4.665858289958157
H -0.8759343856396689 5.5999166167828545 -6.003424132721489
O -10.519400343539415 -4.635239088750398 4.415316612784887
H -11.255154115677529 -5.075007083513196 3.963389788545779
H -10.840506894799965 -3.732798519188994 4.561786901400842
O -1.003311821696653 -1.5999151286473507 12.738898296182976
H -1.721264099045868 -1.3516546685810393 12.137334809660778
H -1.430318042896496 -1.643242820041967 13.607661982414761
O -5.42102651369706 -3.7115749665070648 8.86207818562731
H -5.918996184303293 -3.8765018881435953 9.676812912133931
H -5.772072406458373 -2.8677976715686158 8.539946842815459
O -3.035524185969642 9.159297007397383 5.388222981141425
H -3.394522722103817 8.274321905806746 5.224191040598852
H -2.3678900919245214 9.017263645747605 6.076011600520239
O 3.6023672803106765 11.122489493259271 4.177803317857217
H 3.756690780292881 11.280037439024394 5.121376451768114
H 3.763818488659629 11.985121874728156 3.766998222874227
O 7.903372765937298 -6.430747466894558 6.53955864834893
H 7.66168142704955 -6.494909676482174 7.47574018227677
H 8.183870679935067 -5.5093911483827895 6.432856263739482
O 11.167732424428388 0.22664076266640043 7.877225059886632
H 11.267255975067773 -0.06580781825828241 8.79566735381874
H 10.29206491188081 0.6410859706426182 7.857137218930354
O -2.987863255756683 -6.366816254636852 4.805574258984464
H -3.6044386336471 -6.361826263903847 4.058060205423078
H -2.655905814189512 -7.276878226797652 4.829098886823715
O -2.3994130824682207 3.745905867679335 1.1644129678030937
H -1.709368182273348 4.357390743803626 1.4625599766532753
H -2.8838170512332835 3.5266558119950977 1.9745019458956945
O 4.999444080391397 -3.992938041258843 3.5473507876341457
H 5.164989678635996 -4.141478453225407 4.490482675449759
H 5.477876325024797 -3.1732428837453135 3.3519937290365185
O -7.616097494391861 3.1406923190524303 -4.941760898094371
H -8.014354097487463 2.2696830735848224 -5.089076645048665
H -8.17587013389889 3.5417247012293354 -4.260006129277274
O -3.067068399121064 -10.278211291603185 7.526981167954884
H -3.871119419284266 -10.179240806877315 8.058652266499504
H -3.3664310321844866 -10.122361711157367 6.618655859213463
O 5.604977953332821 10.396670618658154 -5.659838776304444
H 5.669256843018042 10.183907288761905 -4.716669996767985
H 4.659289602812813 10.31437360761462 -5.854422151658168
O 0.11984113501833227 -0.7016227760341036 -6.329133245088893
H -0.31841963601050105 -0.26575276215251 -5.5828677531384265
H 0.8497803562788738 -1.1896821138432716 -5.919317725198747
O 3.936618017679761 2.306235679208963 -11.59149653728207
H 4.154060104314947 2.266241095302867 -12.53494061570851
H 4.641253824388549 2.852420852713329 -11.211849226679373
O 8.686195906250337 3.10084848935933 5.792492408750922
H 9.293314508911338 2.985790656280635 5.046076938486412
H 8.209487179574037 2.2584719176772587 5.838453758729132
O 5.674134935810321 4.691068252365056 -11.84085868708582
H 5.515978029688359 5.237283581422668 -12.625462131029582
H 6.372326544819629 4.079183250604559 -12.118504443454523
O -3.673641585800089 -2.2769789696301452 -11.525696789849109
H -2.779211187102534 -2.3612932454663413 -11.162581489047902
H -4.121840769742172 -1.6801740321192655 -10.907713535726247
O 6.156380254038789 -6.608198601136268 -7.001352200219823
H 5.708549254156491 -6.795432806152732 -7.840016677180827
H 5.430798662511069 -6.453354470687268 -6.378041207535116
O 6.8079924293574345 8.912712573123837 -6.418970327840103
H 6.971394412514233 8.61780101387234 -5.510513217669086
H 7.367119546814357 9.698384696492788 -6.5141445122875705
O -2.6927974701865125 7.795017928003533 -7.4476102116090885
H -2.625719019476347 7.7847041381392525 -6.480986466768853
H -2.7665424926528805 8.735950154436557 -7.667087229133083
O 0.1667081745624297 -9.771055939892406 2.5404163353705544
H -0.007621859841837164 -9.437461237768755 1.647504821994431
H 0.6159263994746689 -10.616511494777654 2.3908508466361145
O -5.223238861315274 5.3617308766074805 10.462278343990922
H -5.236208219238248 5.153134349386961 11.408474223017356
H -4.745634179696822 6.203510066514772 10.414702007066316
C 4.196038320190938 -10.406134468848235 0.4611118639741796
O 3.4843844279562624 -10.507909500548028 1.4181953702001207
O 4.907692212425616 -10.304359437148443 -0.49597164225176193