146

C -5.3564454929577465 1.0091607042253532 -0.0734429577464788
C -4.079135492957747 0.16955070422535368 -0.19788295774647868
C -4.333545492957747 -1.2789292957746463 0.3017270422535212
C -3.1403854929577464 -2.1745492957746464 0.7330270422535212
C -2.905235492957746 0.902300704225353 0.41966704225352136
C -2.7423854929577463 1.056130704225354 1.8024770422535212
C -1.8861754929577463 1.3499307042253532 -0.4326129577464788
C -1.5304554929577463 1.5279207042253526 2.3254170422535214
H -3.5237954929577464 0.7301007042253529 2.484817042253521
C -0.6776454929577462 1.8010507042253527 0.08546704225352131
H -1.9759254929577463 1.2426607042253535 -1.5115229577464788
C -0.4680254929577463 1.8513207042253539 1.4698070422535212
H -1.3950654929577464 1.5446707042253527 3.404047042253521
H 0.1461845070422536 1.9972507042253538 -0.6030529577464789
C -1.8679654929577463 -2.0866092957746467 -0.08765295774647863
C -0.6628654929577462 -1.814079295774647 0.5787970422535212
C -1.8438954929577462 -2.213429295774647 -1.4808029577464787
C 0.5129345070422537 -1.5763292957746469 -0.13022295774647863
H -0.6401854929577462 -1.7032692957746463 1.6609470422535213
C -0.6547954929577462 -1.9962392957746466 -2.1933129577464787
H -2.7578654929577464 -2.4351492957746466 -2.026182957746479
C 0.5308845070422537 -1.645769295774647 -1.5261029577464789
H 1.4044045070422537 -1.2610992957746463 0.41551704225352126
H -0.6795654929577464 -2.0467992957746466 -3.2793129577464786
C 1.7843245070422535 -1.2521692957746469 -2.2771629577464787
H 1.4981245070422535 -0.9384492957746469 -3.290282957746479
H 2.241984507042254 -0.38631929577464685 -1.8135029577464787
C 0.9385645070422537 2.0647807042253534 1.9815670422535212
H 1.0508945070422537 1.5807407042253532 2.9609770422535213
H 1.6053245070422537 1.5496207042253536 1.3096170422535214
C 3.9676945070422533 -1.6881692957746468 -3.314052957746479
H 4.795084507042254 -2.398849295774647 -3.4044129577464783
H 3.548404507042253 -1.4816192957746468 -4.303802957746479
H 4.307714507042253 -0.7637192957746466 -2.851282957746479
C 2.344694507042253 -3.565079295774647 -3.101282957746479
H 1.6334345070422536 -4.047909295774646 -2.4251929577464786
H 1.8561845070422536 -3.293109295774647 -4.041792957746479
H 3.1808045070422537 -4.243519295774647 -3.298122957746479
C 3.5156645070422536 -2.648489295774647 -1.1110629577464786
H 3.9311845070422535 -1.748249295774647 -0.6771029577464787
H 2.767184507042254 -3.1044092957746465 -0.45972295774647876
H 4.319224507042254 -3.371819295774647 -1.2863129577464787
C 2.963994507042253 3.381090704225353 2.401027042253521
H 3.3337945070422537 4.369820704225353 2.6912870422535216
H 3.120994507042253 2.671350704225353 3.2183370422535216
H 3.4665445070422534 3.0664207042253535 1.4881370422535212
C 1.2973745070422538 4.282440704225354 0.8488370422535213
H 1.7592145070422538 3.7367207042253527 0.02653704225352116
H 0.23311450704225378 4.4484607042253534 0.6605570422535213
H 1.7921845070422535 5.251370704225354 0.9736770422535213
C 0.7724845070422537 4.194670704225353 3.2772470422535216
H -0.2956954929577462 4.278220704225354 3.057857042253521
H 0.9298945070422537 3.612620704225354 4.190337042253521
H 1.2046345070422537 5.193640704225353 3.3918370422535213
N 2.876084507042253 -2.324759295774647 -2.4576629577464786
N 1.4527845070422536 3.504690704225353 2.1388470422535213
C -3.593905492957746 -3.637819295774647 0.8297870422535213
H -2.8952554929577463 -1.8680692957746468 1.7595270422535212
H -5.022615492957747 -1.2402792957746467 1.1579970422535213
H -4.898275492957747 -1.7933092957746464 -0.48931295774647876
H -3.883675492957746 0.07871070422535364 -1.2758929577464788
H -3.8751654929577466 -4.038529295774646 -0.1505529577464788
H -4.4603554929577465 -3.7321892957746465 1.4932570422535212
H -2.7953554929577464 -4.271929295774647 1.2313670422535212
H -5.648775492957746 1.147700704225353 0.9733970422535213
H -6.189795492957747 0.5254307042253537 -0.5943629577464788
H -5.2178854929577465 2.002970704225354 -0.5139729577464787
C 3.6710445070422537 1.0263707042253536 -0.27764295774647874
O 2.7356545070422538 1.6631507042253526 -0.7327029577464788
O 3.650814507042253 0.3883007042253537 0.7790570422535212
O 4.756604507042254 0.8696707042253538 -0.8334829577464786
O 12.57675388350534 1.2475662569281232 -3.2067335354826403
H 12.136007431725705 1.495900296067763 -4.033195952745672
H 11.869308176439366 0.8560983212848603 -2.6726592230343384
O 9.140155889208101 -4.182698657832014 -4.488770733207815
H 8.908864498322549 -4.111201410439584 -3.550495830518026
H 9.996391583075756 -3.733683957334329 -4.553641216356544
O 11.3920528280598 -6.3946196925239285 -0.859080796786413
H 11.67663840935203 -7.013771993707413 -0.1701476855486405
H 10.726134538649264 -6.890411936564158 -1.3587855364858665
O -6.177807100370456 3.774341847452807 -3.093922592254682
H -6.270442821772667 3.7869741410645235 -4.058405046827288
H -6.01195692388483 2.8423553696481108 -2.8869035872119517
O -1.8420047580925702 8.59178312714949 -2.070513387606801
H -2.0354988361193915 9.28323385350867 -1.419803550823989
H -2.6521503112294624 8.53444731077446 -2.5990384401758604
O -4.9589110821749225 -1.6019505079012561 -4.466706747958824
H -5.2776855639740585 -1.5688851901096477 -5.381177562918511
H -3.995658819678176 -1.6571779616118798 -4.556467270748858
O 5.25143925587209 -5.673271018536385 -3.9760025891305575
H 5.461244223160598 -5.483202489689392 -3.0492754518657588
H 5.4148925788028555 -6.624446849724862 -4.062659923994951
O 0.3669647188299878 -8.643014910940517 -10.149479748859125
H 0.7886210694808957 -7.855024745406571 -10.523972442883379
H -0.5333388008879894 -8.619007837467112 -10.50702579779082
O 10.659510959503576 6.5759528861379595 -2.2982011523978434
H 11.448242027533846 6.075165220823732 -2.5552660731726435
H 10.177298183859886 6.696363215200327 -3.1300269370192995
O 3.527999295425003 3.175974485535271 -2.775796888694614
H 3.981272561470274 2.3693160299567837 -3.06356908893707
H 2.6636805793754794 3.1267589974570544 -3.211104753452104
O 3.319197221433659 5.397567757442116 5.2120424263935945
H 2.8737212357769595 5.361972228554732 6.0718397638088835
H 3.9754427905979206 4.686149471386155 5.2588154904099005
O -10.474723435448285 5.449168106350671 4.426287993024435
H -10.183285067469399 5.5808728851059115 3.5115831850000996
H -9.795184642399644 4.87331204109528 4.8078358473632825
O 4.444852781617654 6.052816744611336 -0.8211199435560748
H 3.657903374425381 6.261131377204529 -1.3467462378634412
H 4.529688019512184 6.806452223324049 -0.21796283969603136
O 5.598533757206322 8.477146190879111 -8.089972367022344
H 5.5574463387503155 8.29351455063924 -9.040529362497859
H 6.516513709381575 8.277469278373271 -7.852477351671586
O -2.9951014153119555 -1.3697723777078854 -11.752056321299952
H -3.457922686491776 -1.5247679294369185 -12.58915858911895
H -3.7075861204643212 -1.3124733376433722 -11.097805368506126
O 5.122110966043846 9.012961848551054 4.89868749797095
H 5.145884047075832 8.972589700078029 5.866557472268076
H 5.516797537949328 8.173133734423187 4.619629810426009
O -0.25713342290676855 -2.785628995455916 -9.013140946069006
H 0.26425769607120664 -2.0713440632025852 -9.409266801709293
H -0.1875404871377313 -2.6253746382394008 -8.060021169449001
O 5.543845441745813 -2.0888336603800544 5.861221589888971
H 4.996234522226997 -1.3322331755499262 5.603063994458245
H 5.182973507494744 -2.825693328919403 5.345691551724393
O -5.549627060734773 8.762553314844503 3.799548365073197
H -5.2344534994195575 9.508508923627112 4.331697980194409
H -5.600374543628943 9.121125396089358 2.9007643532930363
O -4.146633253443805 3.1931594452412275 -2.458514845375237
H -4.523169016272593 2.423440638261722 -2.0060536488147025
H -3.9569881007745282 2.869792494664862 -3.3520642148249555
O 1.8958307019151 9.161389563541553 4.588529789865916
H 2.7463324787853107 9.38782854742513 4.993917839786469
H 2.120700838112959 8.965898161206754 3.666478556061888
O 6.712768838033885 6.997933727340584 2.963380772130119
H 6.628540356697919 6.868496893242764 3.9199993093802448
H 7.218522090091028 7.820473698773017 2.8821183101347287
O -7.452658006512948 12.692881966415115 0.4032074235786142
H -7.467663970378686 13.425218917239613 -0.23116215987060448
H -6.61524482707543 12.241251723611446 0.21954677186070778
O 9.32632311782562 3.5141886497076733 -7.3106449296733675
H 9.416730039730025 3.543931233482484 -6.34632686799342
H 8.622641268755874 4.153016027025854 -7.499571850938066
C 0.5924812225296956 6.312576669261259 -6.93350577560588
O 1.577941950434308 6.628235720814975 -7.535207341359136
O -0.3929795053749159 5.996917617707541 -6.331804209852624