146

C -5.3564454929577465 1.0091607042253532 -0.0734429577464788
C -4.079135492957747 0.16955070422535368 -0.19788295774647868
C -4.333545492957747 -1.2789292957746463 0.3017270422535212
C -3.1403854929577464 -2.1745492957746464 0.7330270422535212
C -2.905235492957746 0.902300704225353 0.41966704225352136
C -2.7423854929577463 1.056130704225354 1.8024770422535212
C -1.8861754929577463 1.3499307042253532 -0.4326129577464788
C -1.5304554929577463 1.5279207042253526 2.3254170422535214
H -3.5237954929577464 0.7301007042253529 2.484817042253521
C -0.6776454929577462 1.8010507042253527 0.08546704225352131
H -1.9759254929577463 1.2426607042253535 -1.5115229577464788
C -0.4680254929577463 1.8513207042253539 1.4698070422535212
H -1.3950654929577464 1.5446707042253527 3.404047042253521
H 0.1461845070422536 1.9972507042253538 -0.6030529577464789
C -1.8679654929577463 -2.0866092957746467 -0.08765295774647863
C -0.6628654929577462 -1.814079295774647 0.5787970422535212
C -1.8438954929577462 -2.213429295774647 -1.4808029577464787
C 0.5129345070422537 -1.5763292957746469 -0.13022295774647863
H -0.6401854929577462 -1.7032692957746463 1.6609470422535213
C -0.6547954929577462 -1.9962392957746466 -2.1933129577464787
H -2.7578654929577464 -2.4351492957746466 -2.026182957746479
C 0.5308845070422537 -1.645769295774647 -1.5261029577464789
H 1.4044045070422537 -1.2610992957746463 0.41551704225352126
H -0.6795654929577464 -2.0467992957746466 -3.2793129577464786
C 1.7843245070422535 -1.2521692957746469 -2.2771629577464787
H 1.4981245070422535 -0.9384492957746469 -3.290282957746479
H 2.241984507042254 -0.38631929577464685 -1.8135029577464787
C 0.9385645070422537 2.0647807042253534 1.9815670422535212
H 1.0508945070422537 1.5807407042253532 2.9609770422535213
H 1.6053245070422537 1.5496207042253536 1.3096170422535214
C 3.9676945070422533 -1.6881692957746468 -3.314052957746479
H 4.795084507042254 -2.398849295774647 -3.4044129577464783
H 3.548404507042253 -1.4816192957746468 -4.303802957746479
H 4.307714507042253 -0.7637192957746466 -2.851282957746479
C 2.344694507042253 -3.565079295774647 -3.101282957746479
H 1.6334345070422536 -4.047909295774646 -2.4251929577464786
H 1.8561845070422536 -3.293109295774647 -4.041792957746479
H 3.1808045070422537 -4.243519295774647 -3.298122957746479
C 3.5156645070422536 -2.648489295774647 -1.1110629577464786
H 3.9311845070422535 -1.748249295774647 -0.6771029577464787
H 2.767184507042254 -3.1044092957746465 -0.45972295774647876
H 4.319224507042254 -3.371819295774647 -1.2863129577464787
C 2.963994507042253 3.381090704225353 2.401027042253521
H 3.3337945070422537 4.369820704225353 2.6912870422535216
H 3.120994507042253 2.671350704225353 3.2183370422535216
H 3.4665445070422534 3.0664207042253535 1.4881370422535212
C 1.2973745070422538 4.282440704225354 0.8488370422535213
H 1.7592145070422538 3.7367207042253527 0.02653704225352116
H 0.23311450704225378 4.4484607042253534 0.6605570422535213
H 1.7921845070422535 5.251370704225354 0.9736770422535213
C 0.7724845070422537 4.194670704225353 3.2772470422535216
H -0.2956954929577462 4.278220704225354 3.057857042253521
H 0.9298945070422537 3.612620704225354 4.190337042253521
H 1.2046345070422537 5.193640704225353 3.3918370422535213
N 2.876084507042253 -2.324759295774647 -2.4576629577464786
N 1.4527845070422536 3.504690704225353 2.1388470422535213
C -3.593905492957746 -3.637819295774647 0.8297870422535213
H -2.8952554929577463 -1.8680692957746468 1.7595270422535212
H -5.022615492957747 -1.2402792957746467 1.1579970422535213
H -4.898275492957747 -1.7933092957746464 -0.48931295774647876
H -3.883675492957746 0.07871070422535364 -1.2758929577464788
H -3.8751654929577466 -4.038529295774646 -0.1505529577464788
H -4.4603554929577465 -3.7321892957746465 1.4932570422535212
H -2.7953554929577464 -4.271929295774647 1.2313670422535212
H -5.648775492957746 1.147700704225353 0.9733970422535213
H -6.189795492957747 0.5254307042253537 -0.5943629577464788
H -5.2178854929577465 2.002970704225354 -0.5139729577464787
C 3.6710445070422537 1.0263707042253536 -0.27764295774647874
O 2.7356545070422538 1.6631507042253526 -0.7327029577464788
O 3.650814507042253 0.3883007042253537 0.7790570422535212
O 4.756604507042254 0.8696707042253538 -0.8334829577464786
O 4.881493661503894 3.146142992456145 -11.0460001416353
H 5.659971018121708 3.337902329333765 -10.501786287664642
H 4.209082584700358 2.87211093549701 -10.404336896739153
O -0.8861320364772398 -8.368049699071756 -3.2516205044576383
H -1.5224178398716255 -7.823308296660789 -2.764419788327113
H -1.2246449711267458 -9.270337523473891 -3.1503899788705314
O -7.215611789026612 8.037531519755683 -3.899513220682208
H -7.252272545363297 8.063659885612836 -4.8674701692819164
H -8.092902014093164 8.342930181225295 -3.6237316714892853
O -7.193829160840056 10.248689690601623 -9.007184532012324
H -7.030390055128988 10.76279886235098 -9.812135943681103
H -6.49980105463823 10.541373363356193 -8.397575477121567
O 2.9410557194446105 7.710810103335635 -5.428303580162908
H 2.809602614051381 7.326224206086453 -6.307951876710749
H 2.652743469732905 7.012139323867146 -4.821923226850675
O 2.588662184172854 0.9599533947212169 4.884435641287709
H 2.626536162385837 0.9986752606314407 5.851923902598799
H 2.9212239886593196 1.8252842421622095 4.602359206675105
O 3.4245378575426813 -3.391955145946734 4.140858619524278
H 3.8144921851868965 -3.262108014473565 3.263337849570803
H 3.80839016683042 -4.227636038321716 4.446238375031782
O -0.7471387683908293 -3.499052225442581 9.574989121768436
H -1.090275271935871 -3.2040220923309723 10.431833283440223
H -1.3295466389610429 -3.0709235658975573 8.929645130184063
O -6.494867941172803 3.810792096335688 3.75688383529892
H -7.3023516886295265 3.80119765535662 3.221304428305383
H -6.678671128829855 4.467060359575789 4.445716397806622
O -7.43708269596006 7.139672648786005 5.352102869621719
H -7.305199347202611 7.756201108507804 6.087947144977304
H -6.839532883264631 6.403859345384748 5.553286736234786
O -5.613096048579102 1.3891050940801715 -11.75464996545788
H -5.6413251739948205 1.3874508598155297 -12.7232405584781
H -5.235224169630996 2.2534185673696143 -11.532981277343014
O -10.621302067942164 -2.1137063328548376 -1.430443855640891
H -10.086228814576302 -2.5469900450961216 -2.112301021870656
H -11.074374869989455 -1.401320138064742 -1.906041258722011
O 2.4753148493656307 -6.263651086488277 10.543189844046058
H 2.936521648020377 -6.327488523127086 9.69337784868589
H 2.60070895804533 -7.137035219641749 10.943737491354316
O 6.302018557320098 -2.9105756904086837 -7.404955937838325
H 7.190438604624996 -2.530181732547728 -7.33440373539473
H 6.43361987850854 -3.850451847609508 -7.209313801050599
O -0.17673933964866073 -7.140658036073868 5.490713002073041
H 0.5212090665888458 -7.512663140460235 6.050576897534263
H 0.1744687586121278 -7.225252887820518 4.591569783740166
O -8.687952470006918 -4.90990569170486 0.8356232730116995
H -8.976662551553304 -5.760701922000871 0.4726361930383529
H -7.849425754637135 -4.734647379902739 0.3827221623314161
O 2.816215602431109 5.424423265968591 -8.162717440336419
H 3.054506267106749 5.778741397775195 -7.292864822071968
H 2.936995344745823 6.175773498829935 -8.762589948229216
O -4.348666301537827 2.8230267891391874 -4.035636784732542
H -4.927938394939542 2.3865680079323743 -3.3930522136343413
H -3.517396924478504 2.9487607162816114 -3.5538233907419348
O -9.672689061724425 -6.939651829699469 -8.973476955501887
H -9.907673598355164 -7.802535748701337 -9.346546609551122
H -10.231335670663746 -6.8654874349164015 -8.185203174910995
O -3.8218005969775577 9.744577102595567 -0.64557684450393
H -4.759938126745455 9.533161973183601 -0.5265433399906607
H -3.448146611390508 8.939903896457448 -1.0352506499852776
O -12.988043026145998 -0.532083614360193 6.257543390903999
H -13.640254104025573 -1.2198000723720481 6.459122507309431
H -13.438826218171283 0.2934693125942829 6.490392747536982
O -2.094909804143733 -6.203255962039081 0.36876629963374746
H -2.1928778596642715 -7.103367916769812 0.02355899097944192
H -2.3240179458752483 -5.637668949993024 -0.38395060299110173
O -11.116867681777865 -0.3413825032411024 -12.326790100662189
H -10.911835269566527 -0.33656618819048667 -13.273841244979184
H -10.782180144123526 -1.19714812672757 -12.019200448531805
O -0.8533712437677821 -11.641835185638524 7.4324282620858995
H -0.7179751808678763 -11.659113442607278 6.473086443500194
H -0.017825680868346794 -11.295937366392291 7.780537806999233
C -2.620763015409298 -6.9633208510465545 -8.534885411896122
O -2.111263760535829 -6.3516288648989105 -7.640982911247349
O -3.130262270282767 -7.5750128371941985 -9.428787912544895