146

C -5.3564454929577465 1.0091607042253532 -0.0734429577464788
C -4.079135492957747 0.16955070422535368 -0.19788295774647868
C -4.333545492957747 -1.2789292957746463 0.3017270422535212
C -3.1403854929577464 -2.1745492957746464 0.7330270422535212
C -2.905235492957746 0.902300704225353 0.41966704225352136
C -2.7423854929577463 1.056130704225354 1.8024770422535212
C -1.8861754929577463 1.3499307042253532 -0.4326129577464788
C -1.5304554929577463 1.5279207042253526 2.3254170422535214
H -3.5237954929577464 0.7301007042253529 2.484817042253521
C -0.6776454929577462 1.8010507042253527 0.08546704225352131
H -1.9759254929577463 1.2426607042253535 -1.5115229577464788
C -0.4680254929577463 1.8513207042253539 1.4698070422535212
H -1.3950654929577464 1.5446707042253527 3.404047042253521
H 0.1461845070422536 1.9972507042253538 -0.6030529577464789
C -1.8679654929577463 -2.0866092957746467 -0.08765295774647863
C -0.6628654929577462 -1.814079295774647 0.5787970422535212
C -1.8438954929577462 -2.213429295774647 -1.4808029577464787
C 0.5129345070422537 -1.5763292957746469 -0.13022295774647863
H -0.6401854929577462 -1.7032692957746463 1.6609470422535213
C -0.6547954929577462 -1.9962392957746466 -2.1933129577464787
H -2.7578654929577464 -2.4351492957746466 -2.026182957746479
C 0.5308845070422537 -1.645769295774647 -1.5261029577464789
H 1.4044045070422537 -1.2610992957746463 0.41551704225352126
H -0.6795654929577464 -2.0467992957746466 -3.2793129577464786
C 1.7843245070422535 -1.2521692957746469 -2.2771629577464787
H 1.4981245070422535 -0.9384492957746469 -3.290282957746479
H 2.241984507042254 -0.38631929577464685 -1.8135029577464787
C 0.9385645070422537 2.0647807042253534 1.9815670422535212
H 1.0508945070422537 1.5807407042253532 2.9609770422535213
H 1.6053245070422537 1.5496207042253536 1.3096170422535214
C 3.9676945070422533 -1.6881692957746468 -3.314052957746479
H 4.795084507042254 -2.398849295774647 -3.4044129577464783
H 3.548404507042253 -1.4816192957746468 -4.303802957746479
H 4.307714507042253 -0.7637192957746466 -2.851282957746479
C 2.344694507042253 -3.565079295774647 -3.101282957746479
H 1.6334345070422536 -4.047909295774646 -2.4251929577464786
H 1.8561845070422536 -3.293109295774647 -4.041792957746479
H 3.1808045070422537 -4.243519295774647 -3.298122957746479
C 3.5156645070422536 -2.648489295774647 -1.1110629577464786
H 3.9311845070422535 -1.748249295774647 -0.6771029577464787
H 2.767184507042254 -3.1044092957746465 -0.45972295774647876
H 4.319224507042254 -3.371819295774647 -1.2863129577464787
C 2.963994507042253 3.381090704225353 2.401027042253521
H 3.3337945070422537 4.369820704225353 2.6912870422535216
H 3.120994507042253 2.671350704225353 3.2183370422535216
H 3.4665445070422534 3.0664207042253535 1.4881370422535212
C 1.2973745070422538 4.282440704225354 0.8488370422535213
H 1.7592145070422538 3.7367207042253527 0.02653704225352116
H 0.23311450704225378 4.4484607042253534 0.6605570422535213
H 1.7921845070422535 5.251370704225354 0.9736770422535213
C 0.7724845070422537 4.194670704225353 3.2772470422535216
H -0.2956954929577462 4.278220704225354 3.057857042253521
H 0.9298945070422537 3.612620704225354 4.190337042253521
H 1.2046345070422537 5.193640704225353 3.3918370422535213
N 2.876084507042253 -2.324759295774647 -2.4576629577464786
N 1.4527845070422536 3.504690704225353 2.1388470422535213
C -3.593905492957746 -3.637819295774647 0.8297870422535213
H -2.8952554929577463 -1.8680692957746468 1.7595270422535212
H -5.022615492957747 -1.2402792957746467 1.1579970422535213
H -4.898275492957747 -1.7933092957746464 -0.48931295774647876
H -3.883675492957746 0.07871070422535364 -1.2758929577464788
H -3.8751654929577466 -4.038529295774646 -0.1505529577464788
H -4.4603554929577465 -3.7321892957746465 1.4932570422535212
H -2.7953554929577464 -4.271929295774647 1.2313670422535212
H -5.648775492957746 1.147700704225353 0.9733970422535213
H -6.189795492957747 0.5254307042253537 -0.5943629577464788
H -5.2178854929577465 2.002970704225354 -0.5139729577464787
C 3.6710445070422537 1.0263707042253536 -0.27764295774647874
O 2.7356545070422538 1.6631507042253526 -0.7327029577464788
O 3.650814507042253 0.3883007042253537 0.7790570422535212
O 4.756604507042254 0.8696707042253538 -0.8334829577464786
O 9.273832897822365 7.5542731585616565 0.3570202344692124
H 8.471468820689408 7.812083512694004 -0.12121931421819276
H 9.955443386750044 7.51984361313799 -0.33086325282037965
O -0.7941450529549936 -4.458118688198836 5.858422499340205
H -1.1437730738796286 -4.481117047611723 4.95498535191453
H -1.46061861156715 -3.9596385723752365 6.3547011651110985
O -3.301038251005036 2.2619280909571273 -6.167371340057512
H -2.4938974520590724 2.5526544164857694 -5.716850207122013
H -3.8564011404677525 3.0557201017254076 -6.1880655167280505
O -9.691517926172104 -0.9693581639027595 -7.650264202936168
H -9.739618058421325 -0.4113077227107653 -6.859547161724187
H -8.972646998983763 -0.5784301230255484 -8.169264974803877
O 4.108069985267046 5.244865032654869 4.134759862839556
H 4.0505283758612824 4.970067913477061 5.06219873596197
H 4.083943820605531 6.21270871481135 4.17548429516842
O -0.557754204834447 9.821483717893262 -5.5436810536147965
H -1.4911370144952731 9.62548559902644 -5.7149954573592865
H -0.11093583784939143 8.973109779955596 -5.683598717449438
O -6.7993974228506 5.837930310419173 7.6048196619233055
H -7.469776657115505 5.589543669636569 8.258932126142675
H -6.769656587608532 6.8051294628606005 7.655841486035026
O 7.353133794523525 -6.688831677689631 5.724313664047378
H 7.520519730734732 -6.732653964930838 4.77088358669527
H 7.926156424126521 -5.9695794950876255 6.029736826373221
O 3.139229672529564 -4.70250237007064 5.7838095533790295
H 3.534937683229863 -4.435860873584043 6.627186598074343
H 2.2746709516273116 -5.061509839866766 6.03403704795635
O 8.503740872496833 -0.9141222153089485 4.266490391478822
H 7.875201971655502 -1.513779237180796 3.837168061347997
H 9.366575841492375 -1.1997171851430293 3.930464687426395
O 5.723866297071982 5.5871150154452085 2.8384426166106014
H 6.116163122117936 5.163809432709438 3.616827445331971
H 6.483616425322022 5.7785686407811125 2.2682784330022403
O 3.0045481561362855 4.057656991680599 -6.647643384738776
H 2.6727113394922535 4.067198458650054 -5.737280465663298
H 3.507662586273351 3.2314735281932414 -6.704728401581115
O -3.8792145773654125 -6.6580016962512385 -1.4659462611801586
H -3.4860428211012 -7.505142017664587 -1.7242805461904953
H -3.114986096587038 -6.082197471120286 -1.3130859727187045
O 1.440501153009322 -6.639745704455397 -7.582382399944472
H 1.4600576004409151 -6.499563620520425 -8.54099279296528
H 1.2826069346735145 -5.755178480357659 -7.219653594680613
O -4.407719546765971 1.2559029125138277 -7.372419736035975
H -4.487023791024889 1.308106941839711 -8.336760408757325
H -3.570397818840658 0.7890443414830167 -7.231361794397665
O 11.653140628253176 4.086967301388185 -2.0220332132246357
H 12.5992126802947 4.272860616345689 -1.9252928147343626
H 11.221381461089287 4.870477851402464 -1.6496662116169956
O 3.1596741379144104 -6.604352455182015 3.910640603383519
H 2.8697929743381607 -6.902788230576026 4.785781938179594
H 2.4648703385955644 -5.989528165123056 3.630996692122085
O 12.78652844598524 1.7996472251279698 -1.1257539740584583
H 12.903026121020478 2.4014636768692808 -1.8762288950417538
H 13.665912006838802 1.757336833211399 -0.7209622647357792
O 2.8879451848974047 -1.8618573107987213 9.598160892196356
H 2.9578868873229616 -2.0420821186856073 10.547684211438149
H 2.9778103679085164 -2.7346935725595003 9.187012435628846
O 2.04561627751861 4.961340322109679 10.555504032274527
H 1.2544462033736372 5.359688066469612 10.948360679463793
H 2.1220426742164293 5.395029402367853 9.692350087805405
O -8.006235625351987 -12.863783520002938 0.29316738765261974
H -8.353269773656079 -13.098776201073296 -0.5805105259140548
H -7.05313414846437 -13.020852072054735 0.21642763907997686
O 5.80958235903273 6.669898114784773 -2.575136642314861
H 5.827500267392374 6.663483948239289 -3.5439530149714873
H 4.8678811437549365 6.5991561149460685 -2.357981548192832
O 8.903106880488076 5.472621909419322 -4.404848875529369
H 9.206798369229006 5.689541811658731 -5.299099731038474
H 9.547525101680872 4.820804452596727 -4.090490634861117
O -2.718560872654332 0.28705860850553133 8.504444290815231
H -3.1523993385747913 0.3967795465227546 7.644960225722455
H -2.1398342121798404 -0.4798352084928714 8.37830440733002
C 0.7668143077002512 -6.8298451571422785 8.491797920005723
O 0.527999901671652 -7.165676835054973 7.367963848230201
O 1.0056287137288502 -6.494013479229583 9.615631991781246