146

C -5.3564454929577465 1.0091607042253532 -0.0734429577464788
C -4.079135492957747 0.16955070422535368 -0.19788295774647868
C -4.333545492957747 -1.2789292957746463 0.3017270422535212
C -3.1403854929577464 -2.1745492957746464 0.7330270422535212
C -2.905235492957746 0.902300704225353 0.41966704225352136
C -2.7423854929577463 1.056130704225354 1.8024770422535212
C -1.8861754929577463 1.3499307042253532 -0.4326129577464788
C -1.5304554929577463 1.5279207042253526 2.3254170422535214
H -3.5237954929577464 0.7301007042253529 2.484817042253521
C -0.6776454929577462 1.8010507042253527 0.08546704225352131
H -1.9759254929577463 1.2426607042253535 -1.5115229577464788
C -0.4680254929577463 1.8513207042253539 1.4698070422535212
H -1.3950654929577464 1.5446707042253527 3.404047042253521
H 0.1461845070422536 1.9972507042253538 -0.6030529577464789
C -1.8679654929577463 -2.0866092957746467 -0.08765295774647863
C -0.6628654929577462 -1.814079295774647 0.5787970422535212
C -1.8438954929577462 -2.213429295774647 -1.4808029577464787
C 0.5129345070422537 -1.5763292957746469 -0.13022295774647863
H -0.6401854929577462 -1.7032692957746463 1.6609470422535213
C -0.6547954929577462 -1.9962392957746466 -2.1933129577464787
H -2.7578654929577464 -2.4351492957746466 -2.026182957746479
C 0.5308845070422537 -1.645769295774647 -1.5261029577464789
H 1.4044045070422537 -1.2610992957746463 0.41551704225352126
H -0.6795654929577464 -2.0467992957746466 -3.2793129577464786
C 1.7843245070422535 -1.2521692957746469 -2.2771629577464787
H 1.4981245070422535 -0.9384492957746469 -3.290282957746479
H 2.241984507042254 -0.38631929577464685 -1.8135029577464787
C 0.9385645070422537 2.0647807042253534 1.9815670422535212
H 1.0508945070422537 1.5807407042253532 2.9609770422535213
H 1.6053245070422537 1.5496207042253536 1.3096170422535214
C 3.9676945070422533 -1.6881692957746468 -3.314052957746479
H 4.795084507042254 -2.398849295774647 -3.4044129577464783
H 3.548404507042253 -1.4816192957746468 -4.303802957746479
H 4.307714507042253 -0.7637192957746466 -2.851282957746479
C 2.344694507042253 -3.565079295774647 -3.101282957746479
H 1.6334345070422536 -4.047909295774646 -2.4251929577464786
H 1.8561845070422536 -3.293109295774647 -4.041792957746479
H 3.1808045070422537 -4.243519295774647 -3.298122957746479
C 3.5156645070422536 -2.648489295774647 -1.1110629577464786
H 3.9311845070422535 -1.748249295774647 -0.6771029577464787
H 2.767184507042254 -3.1044092957746465 -0.45972295774647876
H 4.319224507042254 -3.371819295774647 -1.2863129577464787
C 2.963994507042253 3.381090704225353 2.401027042253521
H 3.3337945070422537 4.369820704225353 2.6912870422535216
H 3.120994507042253 2.671350704225353 3.2183370422535216
H 3.4665445070422534 3.0664207042253535 1.4881370422535212
C 1.2973745070422538 4.282440704225354 0.8488370422535213
H 1.7592145070422538 3.7367207042253527 0.02653704225352116
H 0.23311450704225378 4.4484607042253534 0.6605570422535213
H 1.7921845070422535 5.251370704225354 0.9736770422535213
C 0.7724845070422537 4.194670704225353 3.2772470422535216
H -0.2956954929577462 4.278220704225354 3.057857042253521
H 0.9298945070422537 3.612620704225354 4.190337042253521
H 1.2046345070422537 5.193640704225353 3.3918370422535213
N 2.876084507042253 -2.324759295774647 -2.4576629577464786
N 1.4527845070422536 3.504690704225353 2.1388470422535213
C -3.593905492957746 -3.637819295774647 0.8297870422535213
H -2.8952554929577463 -1.8680692957746468 1.7595270422535212
H -5.022615492957747 -1.2402792957746467 1.1579970422535213
H -4.898275492957747 -1.7933092957746464 -0.48931295774647876
H -3.883675492957746 0.07871070422535364 -1.2758929577464788
H -3.8751654929577466 -4.038529295774646 -0.1505529577464788
H -4.4603554929577465 -3.7321892957746465 1.4932570422535212
H -2.7953554929577464 -4.271929295774647 1.2313670422535212
H -5.648775492957746 1.147700704225353 0.9733970422535213
H -6.189795492957747 0.5254307042253537 -0.5943629577464788
H -5.2178854929577465 2.002970704225354 -0.5139729577464787
C 3.6710445070422537 1.0263707042253536 -0.27764295774647874
O 2.7356545070422538 1.6631507042253526 -0.7327029577464788
O 3.650814507042253 0.3883007042253537 0.7790570422535212
O 4.756604507042254 0.8696707042253538 -0.8334829577464786
O 11.813066591953346 3.592371513723428 -11.21759316428996
H 11.985481094714128 3.2255065282686974 -12.097735583779587
H 12.311412186774538 3.0137476287927134 -10.621096716513446
O -5.782623247955347 -8.545055053243015 5.889179796330742
H -6.116983809390875 -8.290586096896186 5.01601548068776
H -5.1909580205015455 -7.817858596508746 6.134291028703247
O 2.307856172605298 7.512597033622129 5.699242444693599
H 2.4167533590030468 7.381873995597127 4.74529263101147
H 2.430579239338141 6.626785221852591 6.072389101279525
O -5.3798525945608375 0.8085814253958512 8.636824642182088
H -6.347718432620805 0.8068080179593737 8.683728068949671
H -5.15732647318416 -0.0927049743594095 8.359107348479931
O -6.446542333455627 -0.8070559118426446 11.574924278580419
H -6.109077271432422 -0.7448324312785184 12.481132271968336
H -5.71216665304855 -1.1978572405624726 11.078005144517881
O 2.0029562993943313 9.161981497467542 7.32858435685143
H 2.901715189281226 9.523031948583597 7.299560461555144
H 1.991349067899724 8.627676906075784 8.136882457860406
O 2.931431707158195 0.04280522002759857 12.838498371204462
H 3.491915567269843 0.08345289556047308 13.627911422735865
H 2.1926528870643756 -0.5247950514161889 13.104952365615734
O 3.465440139524719 -0.8184615766618283 -9.490884368647857
H 3.705442915506539 -0.41708724482114745 -10.339568450129578
H 2.5196617780991737 -0.6277524753632698 -9.400910627805848
O -12.06626364689081 3.7601111574581596 -6.160810508678079
H -12.271635625118531 4.687614898950946 -6.351929625921015
H -11.229037380189382 3.8011355678098107 -5.674671515795911
O 5.755828393321864 -4.343681565736261 -8.915451943475306
H 5.869654873032504 -4.375013302562895 -7.953667554080202
H 6.336364732474045 -3.620494194623485 -9.196413737117744
O -5.149314379868468 -3.54631510516265 -5.943089105670146
H -5.14853601607725 -3.580988658283423 -6.9114715176148245
H -5.006760188463663 -4.466750842140242 -5.675809662189288
O -9.50007306710946 5.544796406017103 5.673007519357132
H -9.693561478102318 5.964111284823174 6.524890506699473
H -10.351631788757745 5.175039279541814 5.39535782044594
O -9.936475073986532 -4.634827929479963 6.82308820247838
H -8.985641965484763 -4.7091728227060585 6.99442586187662
H -10.096621767024885 -5.272604913985526 6.111361078473774
O -8.118605971526167 2.2307264868906764 10.320021854710117
H -8.459448787598626 1.6465317353524809 11.013931087900612
H -7.253532063920374 2.5114277760879453 10.65441064776789
O -1.4662166950668545 5.126504493640134 5.751789728645355
H -1.4965874095059322 5.724139930780926 4.989636948109855
H -2.016921648743301 4.37595755214609 5.4827817605288685
O 2.707683099811697 4.710459440590872 -14.03532079545263
H 2.565832961921256 5.310306162617287 -13.287637837672644
H 3.5479917416492057 4.274157285539864 -13.829204905111663
O -7.756670458130928 -10.779282090769891 1.7585622708142323
H -7.556029355297592 -11.378160050996685 2.493447087304829
H -6.980348777716469 -10.201517110684758 1.7088207327831588
O -2.736835529099008 -5.439966380602623 12.780377621534512
H -2.2879525860833034 -6.2512390556963355 13.061994572401913
H -3.583825574543797 -5.751529832000046 12.427534847808369
O 8.215233315263298 -4.253950302799068 -2.9669743535936854
H 8.237476463566171 -3.9321143035143864 -3.8806997985814062
H 7.875938991045195 -3.5000793273573088 -2.461484632392679
O 10.83068841103387 -2.6983283651639605 -1.1324032192488542
H 11.4992773193665 -2.2358507958938567 -0.6050791002512508
H 10.076911719604682 -2.786078397183454 -0.5298398817990515
O 0.14767206648191777 -5.758101944678067 -8.976109527322736
H 0.15324036599980362 -5.495631557291555 -9.908871901502598
H -0.7251832445343167 -6.159966912738034 -8.851249214264849
O 3.3346769187538667 -8.147477214702237 -6.302525521495676
H 3.9733267372131422 -7.42614612667013 -6.406329315840355
H 3.547483228391615 -8.525631636050344 -5.43611069446809
O 1.5127940516215221 0.8737389890096077 5.916271938160104
H 0.8111046123442809 0.7695760537852749 5.256158788289385
H 2.2972751222716274 0.5035851252513257 5.484372052496217
O -4.080596742079102 -0.7625186180934749 4.69328773654685
H -4.130752372413899 -0.6263412602490261 5.651362627594636
H -3.2077359134574706 -0.4169688164673552 4.4531393391878265
C -12.783223249666339 5.4581160257559915 0.05370201735383928
O -12.239387800653308 5.598336027105976 -1.0033692257126847
O -13.32705869867937 5.317896024406008 1.1107732604203635