26
-2
 C                  0.00000000    0.00000000    0.00000000
 C                  1.47500000    0.00000000    0.00000000
 C                 -0.66100000    0.00000000   -1.16100000
 C                  2.16200000   -0.00500000   -1.15800000
 H                  2.00200000    0.00800000    0.94900000
 C                  0.08600000    0.01800000   -2.44000000
 H                 -1.74500000    0.00200000   -1.16400000
 C                  1.44500000    0.01600000   -2.48200000
 H                  3.22200000   -0.00100000   -1.04800000
 H                 -0.49600000    0.04500000   -3.35700000
 C                  2.04200000    0.10600000   -3.90400000
 H                  1.52700000   -0.67100000   -4.52000000
 H                  1.63500000    1.07600000   -4.27200000
 C                  3.71400000    0.73200000   -5.51800000
 H                  4.77000000    0.66900000   -5.86600000
 H                  3.07000000    0.29600000   -6.31300000
 H                  3.46300000    1.81600000   -5.43200000
 C                  3.94600000   -1.36900000   -4.38700000
 H                  3.78000000   -1.95500000   -3.45800000
 H                  3.38400000   -1.86500000   -5.21200000
 H                  5.02700000   -1.43000000   -4.65300000
 C                  4.40700000    0.70500000   -3.23400000
 H                  3.96500000    1.65100000   -2.85500000
 H                  4.69700000    0.02200000   -2.41400000
 H                  5.40100000    0.94000000   -3.67700000
 N                  3.51700000    0.04100000   -4.21400000
