10
-2
 C                  6.09200000    2.53500000    0.00200000
 C                  6.83300000    1.45100000    0.51700000
 C                  5.89000000    3.64600000    0.80900000
 C                  7.34800000    1.48900000    1.81600000
 H                  7.02000000    0.57400000   -0.10000000
 C                  6.40100000    3.69000000    2.10800000
 H                  5.33400000    4.50200000    0.42900000
 C                  7.12600000    2.60800000    2.62900000
 H                  7.92800000    0.63600000    2.16400000
 H                  6.23200000    4.58800000    2.69800000
