40
-7
 C                  0.00000000    0.00000000    0.00000000
 C                  1.50000000    0.00000000    0.00000000
 H                 -0.34200000    0.00000000   -0.93970000
 H                 -0.34200000    0.81380000    0.46980000
 H                 -0.34200000   -0.81380000    0.46980000
 H                  1.84200000   -0.81380000   -0.46980000
 C                  2.01300000    1.22070000   -0.70480000
 H                  1.68850000    2.04510000   -0.24100000
 H                  1.68850000    1.23130000   -1.65060000
 C                  3.51300000    1.22070000   -0.70480000
 H                  3.85510000    0.40690000   -1.17460000
 C                  4.02610000    2.44140000   -1.40950000
 H                  3.70150000    3.26580000   -0.94580000
 H                  3.70150000    2.45200000   -2.35540000
 C                  5.52610000    2.44140000   -1.40950000
 H                  5.86810000    1.62760000   -1.87940000
 C                  6.03910000    3.66210000   -2.11430000
 H                  5.71460000    4.48650000   -1.65060000
 H                  5.71460000    3.67270000   -3.06010000
 C                  7.53910000    3.66210000   -2.11430000
 H                  7.88110000    2.84830000   -2.58420000
 C                  8.05210000    4.88280000   -2.81910000
 H                  7.72760000    5.70720000   -2.35540000
 H                  7.72760000    4.89340000   -3.76490000
 C                  9.55210000    4.88280000   -2.81910000
 H                  9.89410000    4.06900000   -3.28890000
 C                 10.06520000    6.10350000   -3.52380000
 H                  9.74060000    6.92790000   -3.06010000
 H                  9.74060000    6.11410000   -4.46970000
 C                 11.56520000    6.10350000   -3.52380000
 H                 11.90720000    5.28970000   -3.99370000
 C                 12.07820000    7.32420000   -4.22860000
 H                 11.75360000    8.14860000   -3.76490000
 H                 11.75360000    7.33480000   -5.17440000
 C                 13.57820000    7.32420000   -4.22860000
 H                 13.92020000    6.51040000   -4.69850000
 C                 14.09120000    8.54490000   -4.93340000
 H                 13.76670000    9.36930000   -4.46970000
 H                 13.76670000    8.55550000   -5.87920000
 H                 15.09120000    8.54490000   -4.93340000