104

C -5.0710522388059704 1.0783507462686561 0.47044029850746183
C -3.8153522388059704 0.1782507462686569 0.19534029850746193
C -4.11845223880597 -1.3219492537313435 0.5608402985074619
C -2.96945223880597 -2.3874492537313436 0.7034402985074619
C -2.52015223880597 0.7359507462686565 0.7384402985074618
C -2.20305223880597 0.7852507462686571 2.097440298507462
C -1.5755522388059702 1.205650746268656 -0.18965970149253808
C -0.9533522388059701 1.2695507462686564 2.508640298507462
H -2.91125223880597 0.4298507462686567 2.840840298507462
C -0.32655223880597006 1.6562507462686575 0.21554029850746192
H -1.7850522388059702 1.178550746268657 -1.2573597014925382
C 0.004447761194029898 1.6956507462686563 1.569740298507462
H -0.7158522388059702 1.2676507462686573 3.5705402985074617
H 0.3943477611940298 1.9193507462686572 -0.5551597014925382
C -1.76045223880597 -2.1592492537313435 -0.1734597014925381
C -0.5287522388059701 -1.936549253731343 0.464840298507462
C -1.8068522388059702 -2.121249253731343 -1.5681597014925381
C 0.6114477611940299 -1.614449253731343 -0.2582597014925381
H -0.4544522388059702 -1.954049253731343 1.5506402985074619
C -0.6479522388059701 -1.8270492537313432 -2.2998597014925384
H -2.74345223880597 -2.290549253731343 -2.092259701492538
C 0.5698477611940298 -1.5506492537313434 -1.6506597014925382
H 1.5072477611940298 -1.351949253731343 0.2991402985074618
H -0.7173522388059701 -1.7640492537313435 -3.3840597014925375
C 1.7791477611940298 -1.082849253731343 -2.4255597014925376
H 1.4739477611940297 -0.9102492537313429 -3.464259701492538
H 2.1252477611940295 -0.1337492537313434 -2.0010597014925384
C 1.3965477611940298 2.0964507462686566 1.997440298507462
H 1.51704776119403 1.8448507462686567 3.057640298507462
H 2.1256477611940294 1.5207507462686571 1.4165402985074618
C 3.94864776119403 -1.4275492537313434 -3.522959701492538
H 4.81734776119403 -2.087049253731343 -3.615159701492538
H 3.4305477611940303 -1.3641492537313429 -4.484459701492538
H 4.26984776119403 -0.441449253731343 -3.176459701492538
C 2.60904776119403 -3.4296492537313434 -2.8992597014925376
H 1.9825477611940296 -3.869549253731343 -2.119359701492538
H 2.06294776119403 -3.373349253731343 -3.845759701492538
H 3.5215477611940305 -4.019849253731343 -3.0234597014925377
C 3.7281477611940304 -2.060049253731343 -1.156659701492538
H 3.9048477611940298 -1.032549253731343 -0.8295597014925382
H 3.12924776119403 -2.623249253731343 -0.4404597014925382
H 4.68244776119403 -2.5769492537313434 -1.3005597014925383
C 3.1110477611940297 3.755250746268656 2.588740298507462
H 3.40124776119403 4.809350746268656 2.534540298507462
H 2.9823477611940303 3.461750746268656 3.634840298507462
H 3.86514776119403 3.1392507462686563 2.091540298507462
C 1.99744776119403 3.9574507462686572 0.40494029850746194
H 2.67914776119403 3.230350746268657 -0.04295970149253803
H 1.03214776119403 3.981150746268657 -0.10175970149253821
H 2.4399477611940297 4.958250746268657 0.368240298507462
C 0.7418477611940297 4.4992507462686575 2.475440298507462
H -0.18475223880597014 4.424250746268656 1.901240298507462
H 0.57844776119403 4.189650746268656 3.511940298507462
H 1.1210477611940297 5.524350746268658 2.4432402985074617
N 3.00114776119403 -2.025349253731343 -2.490159701492538
N 1.7831477611940298 3.586450746268657 1.862540298507462
C -3.55075223880597 -3.8435492537313434 0.6444402985074619
H -2.62515223880597 -2.2736492537313433 1.7424402985074618
H -4.67195223880597 -1.3478492537313436 1.5102402985074619
H -4.83415223880597 -1.6757492537313432 -0.1945597014925382
H -3.7169522388059697 0.17335074626865676 -0.900559701492538
H -3.9132522388059705 -4.043149253731343 -0.34225970149253815
H -4.35435223880597 -3.9354492537313432 1.3449402985074619
H -2.78115223880597 -4.545049253731343 0.8904402985074619
H -5.24235223880597 1.138950746268657 1.5249402985074618
H -5.92805223880597 0.6501507462686567 -0.006059701492538094
H -4.89895223880597 2.059650746268657 0.08004029850746197
O 7.186507776097211 -2.522912026643477 12.524470797151135
H 8.05346231563944 -2.608873878817584 12.948696849201125
H 7.383532058167073 -2.1078967166893556 11.671296917406485
O 8.101398392446253 -0.6865948558616959 -14.104941396328929
H 7.471366956909028 -1.172795587736823 -13.552097299445373
H 8.924391269070973 -1.19118089626089 -14.021051008564706
O 3.7153383332549073 7.420091674759707 5.912955294983891
H 4.438398721479722 6.775398559171111 5.89011194599889
H 4.077266999142221 8.19401457253326 5.455775971948809
O 6.59886054504243 2.50209861913261 7.30652352601138
H 5.982227931386943 3.1342676286904023 7.705389318015562
H 6.127430110911719 1.6565826059506115 7.349161086074639
O 1.4691845387506628 0.0626676647041553 -11.935319567735405
H 1.042757800306364 -0.1652155830848139 -11.095559590708094
H 0.9215626769457853 0.7796329481675658 -12.288919656934475
O 3.206067626187238 3.084834845275854 -3.766031204643571
H 2.846847270691382 2.539836473033973 -3.0498574356802473
H 3.026940797072037 3.9935035458367607 -3.481080829995482
O 4.57717166705414 -5.313335118998757 4.746454000158685
H 4.46388629353753 -5.660221456018656 5.644119667451426
H 3.734241611609745 -5.510683670530637 4.311155923966315
O 3.6998120107958967 -3.4176748328731326 -10.613359855264779
H 3.5289608764948164 -4.143553249052635 -9.99458867644924
H 3.655667254676399 -2.6232983019462885 -10.06020606840277
O 10.761607060151348 6.25138529893329 -13.197627674367855
H 10.790532777346181 5.643053393598282 -13.951327185271401
H 10.980330082195536 5.6922644677685525 -12.437031802642593
O -2.165114889771275 -1.202128584853857 -8.939647252809875
H -2.0756696726867236 -0.9523237275416183 -8.007679204374785
H -2.76730659674797 -1.9610804391564205 -8.92178177774781
C 9.504614802500168 1.7000920886872641 -13.781273007516585
O 9.052116552006249 1.1069823920418163 -14.71737368497873
O 9.957113052994087 2.293201785332712 -12.84517233005444
C 3.1579603535977214 -0.08491864390075914 3.951474688618382
O 3.618914215325679 -0.12438995323124362 2.8211034877742436
O 3.7508630696355274 -0.4429272141979467 4.975646401276351
O 2.027232083184603 0.3191480429884256 4.246147516403632