104

C -5.0710522388059704 1.0783507462686561 0.47044029850746183
C -3.8153522388059704 0.1782507462686569 0.19534029850746193
C -4.11845223880597 -1.3219492537313435 0.5608402985074619
C -2.96945223880597 -2.3874492537313436 0.7034402985074619
C -2.52015223880597 0.7359507462686565 0.7384402985074618
C -2.20305223880597 0.7852507462686571 2.097440298507462
C -1.5755522388059702 1.205650746268656 -0.18965970149253808
C -0.9533522388059701 1.2695507462686564 2.508640298507462
H -2.91125223880597 0.4298507462686567 2.840840298507462
C -0.32655223880597006 1.6562507462686575 0.21554029850746192
H -1.7850522388059702 1.178550746268657 -1.2573597014925382
C 0.004447761194029898 1.6956507462686563 1.569740298507462
H -0.7158522388059702 1.2676507462686573 3.5705402985074617
H 0.3943477611940298 1.9193507462686572 -0.5551597014925382
C -1.76045223880597 -2.1592492537313435 -0.1734597014925381
C -0.5287522388059701 -1.936549253731343 0.464840298507462
C -1.8068522388059702 -2.121249253731343 -1.5681597014925381
C 0.6114477611940299 -1.614449253731343 -0.2582597014925381
H -0.4544522388059702 -1.954049253731343 1.5506402985074619
C -0.6479522388059701 -1.8270492537313432 -2.2998597014925384
H -2.74345223880597 -2.290549253731343 -2.092259701492538
C 0.5698477611940298 -1.5506492537313434 -1.6506597014925382
H 1.5072477611940298 -1.351949253731343 0.2991402985074618
H -0.7173522388059701 -1.7640492537313435 -3.3840597014925375
C 1.7791477611940298 -1.082849253731343 -2.4255597014925376
H 1.4739477611940297 -0.9102492537313429 -3.464259701492538
H 2.1252477611940295 -0.1337492537313434 -2.0010597014925384
C 1.3965477611940298 2.0964507462686566 1.997440298507462
H 1.51704776119403 1.8448507462686567 3.057640298507462
H 2.1256477611940294 1.5207507462686571 1.4165402985074618
C 3.94864776119403 -1.4275492537313434 -3.522959701492538
H 4.81734776119403 -2.087049253731343 -3.615159701492538
H 3.4305477611940303 -1.3641492537313429 -4.484459701492538
H 4.26984776119403 -0.441449253731343 -3.176459701492538
C 2.60904776119403 -3.4296492537313434 -2.8992597014925376
H 1.9825477611940296 -3.869549253731343 -2.119359701492538
H 2.06294776119403 -3.373349253731343 -3.845759701492538
H 3.5215477611940305 -4.019849253731343 -3.0234597014925377
C 3.7281477611940304 -2.060049253731343 -1.156659701492538
H 3.9048477611940298 -1.032549253731343 -0.8295597014925382
H 3.12924776119403 -2.623249253731343 -0.4404597014925382
H 4.68244776119403 -2.5769492537313434 -1.3005597014925383
C 3.1110477611940297 3.755250746268656 2.588740298507462
H 3.40124776119403 4.809350746268656 2.534540298507462
H 2.9823477611940303 3.461750746268656 3.634840298507462
H 3.86514776119403 3.1392507462686563 2.091540298507462
C 1.99744776119403 3.9574507462686572 0.40494029850746194
H 2.67914776119403 3.230350746268657 -0.04295970149253803
H 1.03214776119403 3.981150746268657 -0.10175970149253821
H 2.4399477611940297 4.958250746268657 0.368240298507462
C 0.7418477611940297 4.4992507462686575 2.475440298507462
H -0.18475223880597014 4.424250746268656 1.901240298507462
H 0.57844776119403 4.189650746268656 3.511940298507462
H 1.1210477611940297 5.524350746268658 2.4432402985074617
N 3.00114776119403 -2.025349253731343 -2.490159701492538
N 1.7831477611940298 3.586450746268657 1.862540298507462
C -3.55075223880597 -3.8435492537313434 0.6444402985074619
H -2.62515223880597 -2.2736492537313433 1.7424402985074618
H -4.67195223880597 -1.3478492537313436 1.5102402985074619
H -4.83415223880597 -1.6757492537313432 -0.1945597014925382
H -3.7169522388059697 0.17335074626865676 -0.900559701492538
H -3.9132522388059705 -4.043149253731343 -0.34225970149253815
H -4.35435223880597 -3.9354492537313432 1.3449402985074619
H -2.78115223880597 -4.545049253731343 0.8904402985074619
H -5.24235223880597 1.138950746268657 1.5249402985074618
H -5.92805223880597 0.6501507462686567 -0.006059701492538094
H -4.89895223880597 2.059650746268657 0.08004029850746197
O 5.5911133837761415 -3.6857441905188377 11.653318602559848
H 5.187024672596525 -2.8050530761360832 11.64539197373927
H 5.983624200595715 -3.7552269687547386 12.536533948049412
O -2.4895608055124434 -9.425280324408863 -2.7402640116436534
H -2.706010975707659 -10.346721043310712 -2.9477819199602755
H -2.48703827219453 -8.985298312567096 -3.603612962173699
O 3.504510622398283 1.1587915927603216 3.866877973857939
H 3.5139196500326095 0.49652641952436727 4.5741853097577785
H 4.208049069427204 0.8699443683093989 3.2664090914176143
O -4.721508959102552 1.4175573535275248 4.675566989074736
H -4.774241871823949 0.6462955619942173 5.259811668756761
H -3.7704315408673965 1.543230190241199 4.539111769550202
O -0.3546167507423059 -0.4413458395240232 7.679313493599493
H -0.9343557007621088 0.2578076601525858 8.01703303792568
H -0.9617862598055262 -1.1651636293120269 7.463918649765347
O -1.103149143813709 -3.9632210662676735 2.5621379822110337
H -1.1047902695168959 -4.150479038037796 3.5128740736764663
H -0.3241007927160441 -4.435449523877939 2.2319170035088343
O -3.621641796427557 7.797578159106354 -6.019992038174
H -3.5352370635433528 7.770543944465675 -6.984756636547082
H -3.169001319406219 6.994337711629001 -5.721858969900327
O 9.963170325807711 -0.4030837699090829 14.237958855060011
H 9.567163161027564 0.4557087675557101 14.44919583084212
H 10.232192377949879 -0.31517539738084294 13.31121120990484
O 1.1811688974481316 2.4775801790706646 -5.042011470939812
H 0.3486245436078381 2.5902846696581636 -4.559170965606984
H 1.7369096533495993 3.2045329283673447 -4.723179451186366
O -1.778293821473913 -1.8832369543920844 -7.876933975643138
H -1.9345430198227194 -1.3247473417892823 -8.653234753389837
H -1.1175765194348317 -1.3929534839180429 -7.365038762082661
C -5.449882936620525 -2.7013845301512247 -6.271796627536742
O -4.320573263033519 -2.9583847148878624 -5.969424632325304
O -6.57919261020753 -2.444384345414587 -6.5741686227481795
C -3.4078230776330334 -3.982146866991864 8.45409592438769
O -3.6394833888664446 -3.419388441996043 9.513063324214269
O -2.56752408453459 -4.874137798619456 8.29014091777953
O -3.977844542224607 -3.746740969742473 7.382504594707814