104

C -5.0710522388059704 1.0783507462686561 0.47044029850746183
C -3.8153522388059704 0.1782507462686569 0.19534029850746193
C -4.11845223880597 -1.3219492537313435 0.5608402985074619
C -2.96945223880597 -2.3874492537313436 0.7034402985074619
C -2.52015223880597 0.7359507462686565 0.7384402985074618
C -2.20305223880597 0.7852507462686571 2.097440298507462
C -1.5755522388059702 1.205650746268656 -0.18965970149253808
C -0.9533522388059701 1.2695507462686564 2.508640298507462
H -2.91125223880597 0.4298507462686567 2.840840298507462
C -0.32655223880597006 1.6562507462686575 0.21554029850746192
H -1.7850522388059702 1.178550746268657 -1.2573597014925382
C 0.004447761194029898 1.6956507462686563 1.569740298507462
H -0.7158522388059702 1.2676507462686573 3.5705402985074617
H 0.3943477611940298 1.9193507462686572 -0.5551597014925382
C -1.76045223880597 -2.1592492537313435 -0.1734597014925381
C -0.5287522388059701 -1.936549253731343 0.464840298507462
C -1.8068522388059702 -2.121249253731343 -1.5681597014925381
C 0.6114477611940299 -1.614449253731343 -0.2582597014925381
H -0.4544522388059702 -1.954049253731343 1.5506402985074619
C -0.6479522388059701 -1.8270492537313432 -2.2998597014925384
H -2.74345223880597 -2.290549253731343 -2.092259701492538
C 0.5698477611940298 -1.5506492537313434 -1.6506597014925382
H 1.5072477611940298 -1.351949253731343 0.2991402985074618
H -0.7173522388059701 -1.7640492537313435 -3.3840597014925375
C 1.7791477611940298 -1.082849253731343 -2.4255597014925376
H 1.4739477611940297 -0.9102492537313429 -3.464259701492538
H 2.1252477611940295 -0.1337492537313434 -2.0010597014925384
C 1.3965477611940298 2.0964507462686566 1.997440298507462
H 1.51704776119403 1.8448507462686567 3.057640298507462
H 2.1256477611940294 1.5207507462686571 1.4165402985074618
C 3.94864776119403 -1.4275492537313434 -3.522959701492538
H 4.81734776119403 -2.087049253731343 -3.615159701492538
H 3.4305477611940303 -1.3641492537313429 -4.484459701492538
H 4.26984776119403 -0.441449253731343 -3.176459701492538
C 2.60904776119403 -3.4296492537313434 -2.8992597014925376
H 1.9825477611940296 -3.869549253731343 -2.119359701492538
H 2.06294776119403 -3.373349253731343 -3.845759701492538
H 3.5215477611940305 -4.019849253731343 -3.0234597014925377
C 3.7281477611940304 -2.060049253731343 -1.156659701492538
H 3.9048477611940298 -1.032549253731343 -0.8295597014925382
H 3.12924776119403 -2.623249253731343 -0.4404597014925382
H 4.68244776119403 -2.5769492537313434 -1.3005597014925383
C 3.1110477611940297 3.755250746268656 2.588740298507462
H 3.40124776119403 4.809350746268656 2.534540298507462
H 2.9823477611940303 3.461750746268656 3.634840298507462
H 3.86514776119403 3.1392507462686563 2.091540298507462
C 1.99744776119403 3.9574507462686572 0.40494029850746194
H 2.67914776119403 3.230350746268657 -0.04295970149253803
H 1.03214776119403 3.981150746268657 -0.10175970149253821
H 2.4399477611940297 4.958250746268657 0.368240298507462
C 0.7418477611940297 4.4992507462686575 2.475440298507462
H -0.18475223880597014 4.424250746268656 1.901240298507462
H 0.57844776119403 4.189650746268656 3.511940298507462
H 1.1210477611940297 5.524350746268658 2.4432402985074617
N 3.00114776119403 -2.025349253731343 -2.490159701492538
N 1.7831477611940298 3.586450746268657 1.862540298507462
C -3.55075223880597 -3.8435492537313434 0.6444402985074619
H -2.62515223880597 -2.2736492537313433 1.7424402985074618
H -4.67195223880597 -1.3478492537313436 1.5102402985074619
H -4.83415223880597 -1.6757492537313432 -0.1945597014925382
H -3.7169522388059697 0.17335074626865676 -0.900559701492538
H -3.9132522388059705 -4.043149253731343 -0.34225970149253815
H -4.35435223880597 -3.9354492537313432 1.3449402985074619
H -2.78115223880597 -4.545049253731343 0.8904402985074619
H -5.24235223880597 1.138950746268657 1.5249402985074618
H -5.92805223880597 0.6501507462686567 -0.006059701492538094
H -4.89895223880597 2.059650746268657 0.08004029850746197
O 2.853338304918903 -2.6403720302881744 2.46094037228064
H 2.9165091732583064 -2.317737430967354 3.3724686020214087
H 2.5613565206639812 -3.559265583614007 2.5576007034384527
O -2.6547725898208125 -6.175328497284213 -3.291339688219983
H -2.898890747695314 -6.910465865767726 -2.709148369704243
H -3.109733474075115 -5.411114403613965 -2.9066978325486295
O -0.5561123470883934 -6.387813821700476 -1.197058783377575
H -0.15396308510277873 -7.268187734490967 -1.1503137123819394
H -1.1553018743173655 -6.363484235273745 -0.43591364217031203
O -6.956898882875069 0.06803463201326142 14.7336510565101
H -6.00747248415927 -0.02998392216718404 14.566470814382258
H -7.0187058181218145 0.1382301920746209 15.698127303186542
O -0.19750884105413266 0.14421433137247658 9.578114174977898
H 0.10971744968425737 0.6237722396311681 10.362080740467576
H 0.08689682971238799 -0.7686009091549065 9.735733004426605
O -12.518396866892104 -4.973065201258815 -14.358636409388497
H -11.958154747608738 -5.048395650130634 -13.571603088522313
H -13.134489111153279 -4.257871715822087 -14.139797269264772
O 12.788410522034946 0.23072701312768307 -12.676146629184995
H 13.372336790715876 0.7621002555855156 -13.237965057900375
H 12.806792661683241 -0.6479000080689188 -13.084360542305477
O 5.5068980199977515 9.077886457989996 -5.934078382228273
H 4.727472165343854 9.159396533684875 -6.504007151073344
H 5.2304490190709885 9.485794645968161 -5.099723059618677
O -8.700842433034357 -6.791674400734954 -8.99285395581733
H -9.152866317752338 -6.548149476986414 -8.171064824678608
H -8.749354539182661 -5.988923079266649 -9.533408148972784
O -6.401897119801282 5.330854535696345 -6.000646342173121
H -5.765218114623506 5.5042285016072965 -6.710257974835768
H -6.273468898358255 4.392672053955785 -5.795021034411397
C 2.4550922548541076 2.8425580628016984 -4.575505346045284
O 1.9742561361474331 2.8560037155044387 -3.4794058529925325
O 2.935928373560782 2.829112410098958 -5.671604839098035
C 4.690510673888649 6.362651766591529 7.137943859338911
O 5.376583936255146 6.487444976682733 8.140692896726096
O 4.598114215486502 5.331818987810745 6.461572555419365
O 3.9824334714592826 7.247896722490248 6.644368710191713