104

C -5.0710522388059704 1.0783507462686561 0.47044029850746183
C -3.8153522388059704 0.1782507462686569 0.19534029850746193
C -4.11845223880597 -1.3219492537313435 0.5608402985074619
C -2.96945223880597 -2.3874492537313436 0.7034402985074619
C -2.52015223880597 0.7359507462686565 0.7384402985074618
C -2.20305223880597 0.7852507462686571 2.097440298507462
C -1.5755522388059702 1.205650746268656 -0.18965970149253808
C -0.9533522388059701 1.2695507462686564 2.508640298507462
H -2.91125223880597 0.4298507462686567 2.840840298507462
C -0.32655223880597006 1.6562507462686575 0.21554029850746192
H -1.7850522388059702 1.178550746268657 -1.2573597014925382
C 0.004447761194029898 1.6956507462686563 1.569740298507462
H -0.7158522388059702 1.2676507462686573 3.5705402985074617
H 0.3943477611940298 1.9193507462686572 -0.5551597014925382
C -1.76045223880597 -2.1592492537313435 -0.1734597014925381
C -0.5287522388059701 -1.936549253731343 0.464840298507462
C -1.8068522388059702 -2.121249253731343 -1.5681597014925381
C 0.6114477611940299 -1.614449253731343 -0.2582597014925381
H -0.4544522388059702 -1.954049253731343 1.5506402985074619
C -0.6479522388059701 -1.8270492537313432 -2.2998597014925384
H -2.74345223880597 -2.290549253731343 -2.092259701492538
C 0.5698477611940298 -1.5506492537313434 -1.6506597014925382
H 1.5072477611940298 -1.351949253731343 0.2991402985074618
H -0.7173522388059701 -1.7640492537313435 -3.3840597014925375
C 1.7791477611940298 -1.082849253731343 -2.4255597014925376
H 1.4739477611940297 -0.9102492537313429 -3.464259701492538
H 2.1252477611940295 -0.1337492537313434 -2.0010597014925384
C 1.3965477611940298 2.0964507462686566 1.997440298507462
H 1.51704776119403 1.8448507462686567 3.057640298507462
H 2.1256477611940294 1.5207507462686571 1.4165402985074618
C 3.94864776119403 -1.4275492537313434 -3.522959701492538
H 4.81734776119403 -2.087049253731343 -3.615159701492538
H 3.4305477611940303 -1.3641492537313429 -4.484459701492538
H 4.26984776119403 -0.441449253731343 -3.176459701492538
C 2.60904776119403 -3.4296492537313434 -2.8992597014925376
H 1.9825477611940296 -3.869549253731343 -2.119359701492538
H 2.06294776119403 -3.373349253731343 -3.845759701492538
H 3.5215477611940305 -4.019849253731343 -3.0234597014925377
C 3.7281477611940304 -2.060049253731343 -1.156659701492538
H 3.9048477611940298 -1.032549253731343 -0.8295597014925382
H 3.12924776119403 -2.623249253731343 -0.4404597014925382
H 4.68244776119403 -2.5769492537313434 -1.3005597014925383
C 3.1110477611940297 3.755250746268656 2.588740298507462
H 3.40124776119403 4.809350746268656 2.534540298507462
H 2.9823477611940303 3.461750746268656 3.634840298507462
H 3.86514776119403 3.1392507462686563 2.091540298507462
C 1.99744776119403 3.9574507462686572 0.40494029850746194
H 2.67914776119403 3.230350746268657 -0.04295970149253803
H 1.03214776119403 3.981150746268657 -0.10175970149253821
H 2.4399477611940297 4.958250746268657 0.368240298507462
C 0.7418477611940297 4.4992507462686575 2.475440298507462
H -0.18475223880597014 4.424250746268656 1.901240298507462
H 0.57844776119403 4.189650746268656 3.511940298507462
H 1.1210477611940297 5.524350746268658 2.4432402985074617
N 3.00114776119403 -2.025349253731343 -2.490159701492538
N 1.7831477611940298 3.586450746268657 1.862540298507462
C -3.55075223880597 -3.8435492537313434 0.6444402985074619
H -2.62515223880597 -2.2736492537313433 1.7424402985074618
H -4.67195223880597 -1.3478492537313436 1.5102402985074619
H -4.83415223880597 -1.6757492537313432 -0.1945597014925382
H -3.7169522388059697 0.17335074626865676 -0.900559701492538
H -3.9132522388059705 -4.043149253731343 -0.34225970149253815
H -4.35435223880597 -3.9354492537313432 1.3449402985074619
H -2.78115223880597 -4.545049253731343 0.8904402985074619
H -5.24235223880597 1.138950746268657 1.5249402985074618
H -5.92805223880597 0.6501507462686567 -0.006059701492538094
H -4.89895223880597 2.059650746268657 0.08004029850746197
O -11.469450972898155 -1.6597927169299969 12.245955426712362
H -10.639648699232891 -2.004137997649975 11.882882608718726
H -12.022547583212921 -1.5100676239867987 11.464528219289004
O -3.457790156587917 3.5901401239026396 9.7340396133826
H -3.597531949497729 2.819672381493568 9.163234001881259
H -4.259026989026255 3.627021854318814 10.277750217110068
O 6.258899284865576 -9.358799100218398 -6.152701706935238
H 5.549781514972096 -9.921142805739407 -5.806451938441162
H 6.00798955904707 -8.466038474697209 -5.8716595049286795
O -1.4923537512476819 -0.13586350833626404 -10.68600543695285
H -1.5342927961490338 -0.827058152536989 -11.363839072324389
H -2.391742312463296 -0.10558121460714126 -10.326637738152568
O -4.477545507433277 6.922274804601822 4.589088324064694
H -4.343899058673945 7.877008584442863 4.687013771546232
H -3.615039554981657 6.594321131196234 4.293298171447497
O 4.1015711702147755 5.910466997237863 6.150591095422582
H 4.578470232086195 5.133651834528639 6.479365858248443
H 3.182272723640862 5.747979124637006 6.410302476929892
O 8.613752304260736 1.8039058060288538 13.664091103319977
H 7.772628076125321 1.7569783238631125 14.142918004361668
H 8.466618568821023 2.4936277376829405 12.99956325199175
O 2.2851263189627438 11.14235338483116 -3.1784143379076037
H 2.7143950364179017 11.067208471620946 -2.3129381873794483
H 1.5379354667799066 11.738155124305361 -3.0181393805567995
O 5.948065039697898 7.502851738388088 9.942158985090261
H 5.912687215992715 7.432941673138955 8.9763285914565
H 6.676239795825463 6.914751853491088 10.192881928242054
O 4.2183388543371425 6.351373819693376 -4.099581641709296
H 3.471455572567911 6.936760793981219 -4.295680623470416
H 4.993066100684292 6.854189439437902 -4.392730222821829
C 7.4897305799481755 -4.134655884397486 -8.754594590437051
O 6.556401412953056 -3.719094387496472 -9.378312127171096
O 8.423059746943295 -4.5502173812985 -8.130877053703006
C -4.2632072421520855 1.6959367357654838 -4.696452630200486
O -3.7166988665723246 2.303484754836192 -5.604191303247101
O -4.397607682680553 0.46816388299481115 -4.640400799854644
O -4.766442748929751 2.2148710751273306 -3.693402501568168