104

C -5.0710522388059704 1.0783507462686561 0.47044029850746183
C -3.8153522388059704 0.1782507462686569 0.19534029850746193
C -4.11845223880597 -1.3219492537313435 0.5608402985074619
C -2.96945223880597 -2.3874492537313436 0.7034402985074619
C -2.52015223880597 0.7359507462686565 0.7384402985074618
C -2.20305223880597 0.7852507462686571 2.097440298507462
C -1.5755522388059702 1.205650746268656 -0.18965970149253808
C -0.9533522388059701 1.2695507462686564 2.508640298507462
H -2.91125223880597 0.4298507462686567 2.840840298507462
C -0.32655223880597006 1.6562507462686575 0.21554029850746192
H -1.7850522388059702 1.178550746268657 -1.2573597014925382
C 0.004447761194029898 1.6956507462686563 1.569740298507462
H -0.7158522388059702 1.2676507462686573 3.5705402985074617
H 0.3943477611940298 1.9193507462686572 -0.5551597014925382
C -1.76045223880597 -2.1592492537313435 -0.1734597014925381
C -0.5287522388059701 -1.936549253731343 0.464840298507462
C -1.8068522388059702 -2.121249253731343 -1.5681597014925381
C 0.6114477611940299 -1.614449253731343 -0.2582597014925381
H -0.4544522388059702 -1.954049253731343 1.5506402985074619
C -0.6479522388059701 -1.8270492537313432 -2.2998597014925384
H -2.74345223880597 -2.290549253731343 -2.092259701492538
C 0.5698477611940298 -1.5506492537313434 -1.6506597014925382
H 1.5072477611940298 -1.351949253731343 0.2991402985074618
H -0.7173522388059701 -1.7640492537313435 -3.3840597014925375
C 1.7791477611940298 -1.082849253731343 -2.4255597014925376
H 1.4739477611940297 -0.9102492537313429 -3.464259701492538
H 2.1252477611940295 -0.1337492537313434 -2.0010597014925384
C 1.3965477611940298 2.0964507462686566 1.997440298507462
H 1.51704776119403 1.8448507462686567 3.057640298507462
H 2.1256477611940294 1.5207507462686571 1.4165402985074618
C 3.94864776119403 -1.4275492537313434 -3.522959701492538
H 4.81734776119403 -2.087049253731343 -3.615159701492538
H 3.4305477611940303 -1.3641492537313429 -4.484459701492538
H 4.26984776119403 -0.441449253731343 -3.176459701492538
C 2.60904776119403 -3.4296492537313434 -2.8992597014925376
H 1.9825477611940296 -3.869549253731343 -2.119359701492538
H 2.06294776119403 -3.373349253731343 -3.845759701492538
H 3.5215477611940305 -4.019849253731343 -3.0234597014925377
C 3.7281477611940304 -2.060049253731343 -1.156659701492538
H 3.9048477611940298 -1.032549253731343 -0.8295597014925382
H 3.12924776119403 -2.623249253731343 -0.4404597014925382
H 4.68244776119403 -2.5769492537313434 -1.3005597014925383
C 3.1110477611940297 3.755250746268656 2.588740298507462
H 3.40124776119403 4.809350746268656 2.534540298507462
H 2.9823477611940303 3.461750746268656 3.634840298507462
H 3.86514776119403 3.1392507462686563 2.091540298507462
C 1.99744776119403 3.9574507462686572 0.40494029850746194
H 2.67914776119403 3.230350746268657 -0.04295970149253803
H 1.03214776119403 3.981150746268657 -0.10175970149253821
H 2.4399477611940297 4.958250746268657 0.368240298507462
C 0.7418477611940297 4.4992507462686575 2.475440298507462
H -0.18475223880597014 4.424250746268656 1.901240298507462
H 0.57844776119403 4.189650746268656 3.511940298507462
H 1.1210477611940297 5.524350746268658 2.4432402985074617
N 3.00114776119403 -2.025349253731343 -2.490159701492538
N 1.7831477611940298 3.586450746268657 1.862540298507462
C -3.55075223880597 -3.8435492537313434 0.6444402985074619
H -2.62515223880597 -2.2736492537313433 1.7424402985074618
H -4.67195223880597 -1.3478492537313436 1.5102402985074619
H -4.83415223880597 -1.6757492537313432 -0.1945597014925382
H -3.7169522388059697 0.17335074626865676 -0.900559701492538
H -3.9132522388059705 -4.043149253731343 -0.34225970149253815
H -4.35435223880597 -3.9354492537313432 1.3449402985074619
H -2.78115223880597 -4.545049253731343 0.8904402985074619
H -5.24235223880597 1.138950746268657 1.5249402985074618
H -5.92805223880597 0.6501507462686567 -0.006059701492538094
H -4.89895223880597 2.059650746268657 0.08004029850746197
O 2.4598371535916153 -2.049009848930475 -7.343967550148372
H 1.5799428682888785 -1.7820512814668383 -7.6497232154259756
H 3.0112232286665988 -1.9914740926667347 -8.13871592370101
O -10.507275595064463 -4.731502942179665 -11.252075459402311
H -10.92396600899668 -3.886364287806326 -11.47807791673634
H -10.974606823900888 -5.016453769849126 -10.452471499516717
O 0.25798191971401385 -0.06558358337257322 -9.806378135625485
H 0.6071573024867235 -0.5962048760226113 -10.538146509328486
H 0.9878195375575699 0.5304142459876555 -9.580356934676683
O 5.438446297436528 9.134288509371896 -5.953253277970195
H 5.9793399746721985 8.800718915755297 -5.221725620912082
H 6.021079119154937 9.760580416853566 -6.408510772119842
O 3.2981721254889544 -7.628323780354032 -3.1378037609791316
H 3.178596916142279 -7.261271748539266 -2.249016985565393
H 2.521234341206245 -7.317010714864489 -3.626080116037798
O 9.257207089875234 -2.769401589375647 9.800599550171349
H 9.462050591274208 -2.4245478450025306 8.918509763456612
H 10.083323554443826 -3.1877800330416624 10.085999285883018
O 7.644154141276848 -11.808053278998601 8.056139866232284
H 8.056028230079715 -11.926586152879564 7.1870730968282714
H 7.395492946771615 -10.871628047114962 8.071545700805721
O 5.981537665332378 -7.980413611656001 5.567590733595383
H 5.715074114275777 -8.911048527140753 5.610986435444711
H 5.214078932187852 -7.500813601807863 5.913932858919265
O -3.675042574874871 3.59594091533018 -9.933309575267383
H -4.0714104017913915 3.173236789668949 -9.156662213310586
H -3.501326306053078 2.858847135884179 -10.537856812916058
O -6.622973211121808 -10.333329377493243 7.90586777755667
H -6.167436108192401 -9.504594466217384 8.117177388287647
H -6.889245067988395 -10.22469673480232 6.980524494508263
C 1.5723555676176875 2.497141342899467 -7.459662284667566
O 2.063443446864418 3.588629559152422 -7.442214478562181
O 1.0812676883709573 1.405653126646512 -7.477110090772951
C 1.9581889445058154 0.383440041123832 12.787513155528769
O 3.0070080647878528 0.9466923003081018 13.06046158299196
O 0.8375607611110307 0.9039429993375173 12.831109132087478
O 1.8551247099841632 -0.7942439582046936 12.425454395535262