104

C -5.0710522388059704 1.0783507462686561 0.47044029850746183
C -3.8153522388059704 0.1782507462686569 0.19534029850746193
C -4.11845223880597 -1.3219492537313435 0.5608402985074619
C -2.96945223880597 -2.3874492537313436 0.7034402985074619
C -2.52015223880597 0.7359507462686565 0.7384402985074618
C -2.20305223880597 0.7852507462686571 2.097440298507462
C -1.5755522388059702 1.205650746268656 -0.18965970149253808
C -0.9533522388059701 1.2695507462686564 2.508640298507462
H -2.91125223880597 0.4298507462686567 2.840840298507462
C -0.32655223880597006 1.6562507462686575 0.21554029850746192
H -1.7850522388059702 1.178550746268657 -1.2573597014925382
C 0.004447761194029898 1.6956507462686563 1.569740298507462
H -0.7158522388059702 1.2676507462686573 3.5705402985074617
H 0.3943477611940298 1.9193507462686572 -0.5551597014925382
C -1.76045223880597 -2.1592492537313435 -0.1734597014925381
C -0.5287522388059701 -1.936549253731343 0.464840298507462
C -1.8068522388059702 -2.121249253731343 -1.5681597014925381
C 0.6114477611940299 -1.614449253731343 -0.2582597014925381
H -0.4544522388059702 -1.954049253731343 1.5506402985074619
C -0.6479522388059701 -1.8270492537313432 -2.2998597014925384
H -2.74345223880597 -2.290549253731343 -2.092259701492538
C 0.5698477611940298 -1.5506492537313434 -1.6506597014925382
H 1.5072477611940298 -1.351949253731343 0.2991402985074618
H -0.7173522388059701 -1.7640492537313435 -3.3840597014925375
C 1.7791477611940298 -1.082849253731343 -2.4255597014925376
H 1.4739477611940297 -0.9102492537313429 -3.464259701492538
H 2.1252477611940295 -0.1337492537313434 -2.0010597014925384
C 1.3965477611940298 2.0964507462686566 1.997440298507462
H 1.51704776119403 1.8448507462686567 3.057640298507462
H 2.1256477611940294 1.5207507462686571 1.4165402985074618
C 3.94864776119403 -1.4275492537313434 -3.522959701492538
H 4.81734776119403 -2.087049253731343 -3.615159701492538
H 3.4305477611940303 -1.3641492537313429 -4.484459701492538
H 4.26984776119403 -0.441449253731343 -3.176459701492538
C 2.60904776119403 -3.4296492537313434 -2.8992597014925376
H 1.9825477611940296 -3.869549253731343 -2.119359701492538
H 2.06294776119403 -3.373349253731343 -3.845759701492538
H 3.5215477611940305 -4.019849253731343 -3.0234597014925377
C 3.7281477611940304 -2.060049253731343 -1.156659701492538
H 3.9048477611940298 -1.032549253731343 -0.8295597014925382
H 3.12924776119403 -2.623249253731343 -0.4404597014925382
H 4.68244776119403 -2.5769492537313434 -1.3005597014925383
C 3.1110477611940297 3.755250746268656 2.588740298507462
H 3.40124776119403 4.809350746268656 2.534540298507462
H 2.9823477611940303 3.461750746268656 3.634840298507462
H 3.86514776119403 3.1392507462686563 2.091540298507462
C 1.99744776119403 3.9574507462686572 0.40494029850746194
H 2.67914776119403 3.230350746268657 -0.04295970149253803
H 1.03214776119403 3.981150746268657 -0.10175970149253821
H 2.4399477611940297 4.958250746268657 0.368240298507462
C 0.7418477611940297 4.4992507462686575 2.475440298507462
H -0.18475223880597014 4.424250746268656 1.901240298507462
H 0.57844776119403 4.189650746268656 3.511940298507462
H 1.1210477611940297 5.524350746268658 2.4432402985074617
N 3.00114776119403 -2.025349253731343 -2.490159701492538
N 1.7831477611940298 3.586450746268657 1.862540298507462
C -3.55075223880597 -3.8435492537313434 0.6444402985074619
H -2.62515223880597 -2.2736492537313433 1.7424402985074618
H -4.67195223880597 -1.3478492537313436 1.5102402985074619
H -4.83415223880597 -1.6757492537313432 -0.1945597014925382
H -3.7169522388059697 0.17335074626865676 -0.900559701492538
H -3.9132522388059705 -4.043149253731343 -0.34225970149253815
H -4.35435223880597 -3.9354492537313432 1.3449402985074619
H -2.78115223880597 -4.545049253731343 0.8904402985074619
H -5.24235223880597 1.138950746268657 1.5249402985074618
H -5.92805223880597 0.6501507462686567 -0.006059701492538094
H -4.89895223880597 2.059650746268657 0.08004029850746197
O -2.3802188763055963 5.626156903009882 2.652616230661386
H -2.2185659936354214 5.125445354627078 3.4663260362681014
H -3.25606678409409 6.017694599656429 2.7888168871474495
O 5.703394789645937 -7.865150226497182 -6.199842850081645
H 5.796645896316044 -6.9028731622890955 -6.265374824749489
H 6.615099016056616 -8.183832790737267 -6.121110575287453
O -2.394009870885105 2.1271050416642447 -6.723774934354782
H -1.9412423035222401 2.9003102995926557 -7.092722784268797
H -1.8247258651476574 1.3827495376034018 -6.970376938981373
O -5.976634403410882 -6.4508739902687475 6.342459818222143
H -6.225843244121145 -6.837540172608704 5.489610726033794
H -5.108989594580267 -6.053388747051304 6.174650666404805
O -5.8931320903155 -0.9321083571332662 10.877695798619254
H -5.419378945065928 -0.35781691533320986 11.497949500052265
H -5.2096566506296575 -1.2146613804252475 10.251607101488563
O 1.527778342920508 7.842780095528292 0.9798317991936274
H 1.7767633951682515 8.089858931545741 1.8831179384924943
H 0.5862784758601329 7.623971228051422 1.0481152096150796
O 4.577686576555779 -12.950776026494982 5.060338901411565
H 4.697416816573344 -13.82903149983021 4.668804292363972
H 5.457086366584258 -12.54768465212571 5.004345174022163
O 2.6563580143829304 -2.311623114745395 3.443735220400757
H 3.4220187401795754 -2.04382771236303 3.973845239486817
H 2.4140485076882827 -3.1780860076614372 3.8035825525639386
O -2.409589346471922 -6.423741643391787 -4.434618869628444
H -1.6962770304642014 -6.249235408513871 -5.066837558628095
H -2.7165272818445843 -5.5410332307261285 -4.178538986899557
O -0.18215881802193362 -8.163875122050031 0.5367887611248771
H 0.09091731782636814 -9.071129438583405 0.33359824446201913
H -1.1463917117168192 -8.183044643011968 0.44271750896526985
C 3.479571915915562 -0.7181136973961936 -7.834885516871396
O 2.3041152789185944 -0.6841070117479381 -7.61136035683119
O 4.65502855291253 -0.7521203830444491 -8.058410676911603
C 3.0757822606887935 -8.449468658066758 -4.842381426324027
O 2.8347523668702963 -8.078441091787793 -5.9808095680821936
O 3.4067673200224946 -7.711267364785309 -3.907427307024336
O 3.0260138253691826 -9.620576173829376 -4.449089329060236