104

C -5.0710522388059704 1.0783507462686561 0.47044029850746183
C -3.8153522388059704 0.1782507462686569 0.19534029850746193
C -4.11845223880597 -1.3219492537313435 0.5608402985074619
C -2.96945223880597 -2.3874492537313436 0.7034402985074619
C -2.52015223880597 0.7359507462686565 0.7384402985074618
C -2.20305223880597 0.7852507462686571 2.097440298507462
C -1.5755522388059702 1.205650746268656 -0.18965970149253808
C -0.9533522388059701 1.2695507462686564 2.508640298507462
H -2.91125223880597 0.4298507462686567 2.840840298507462
C -0.32655223880597006 1.6562507462686575 0.21554029850746192
H -1.7850522388059702 1.178550746268657 -1.2573597014925382
C 0.004447761194029898 1.6956507462686563 1.569740298507462
H -0.7158522388059702 1.2676507462686573 3.5705402985074617
H 0.3943477611940298 1.9193507462686572 -0.5551597014925382
C -1.76045223880597 -2.1592492537313435 -0.1734597014925381
C -0.5287522388059701 -1.936549253731343 0.464840298507462
C -1.8068522388059702 -2.121249253731343 -1.5681597014925381
C 0.6114477611940299 -1.614449253731343 -0.2582597014925381
H -0.4544522388059702 -1.954049253731343 1.5506402985074619
C -0.6479522388059701 -1.8270492537313432 -2.2998597014925384
H -2.74345223880597 -2.290549253731343 -2.092259701492538
C 0.5698477611940298 -1.5506492537313434 -1.6506597014925382
H 1.5072477611940298 -1.351949253731343 0.2991402985074618
H -0.7173522388059701 -1.7640492537313435 -3.3840597014925375
C 1.7791477611940298 -1.082849253731343 -2.4255597014925376
H 1.4739477611940297 -0.9102492537313429 -3.464259701492538
H 2.1252477611940295 -0.1337492537313434 -2.0010597014925384
C 1.3965477611940298 2.0964507462686566 1.997440298507462
H 1.51704776119403 1.8448507462686567 3.057640298507462
H 2.1256477611940294 1.5207507462686571 1.4165402985074618
C 3.94864776119403 -1.4275492537313434 -3.522959701492538
H 4.81734776119403 -2.087049253731343 -3.615159701492538
H 3.4305477611940303 -1.3641492537313429 -4.484459701492538
H 4.26984776119403 -0.441449253731343 -3.176459701492538
C 2.60904776119403 -3.4296492537313434 -2.8992597014925376
H 1.9825477611940296 -3.869549253731343 -2.119359701492538
H 2.06294776119403 -3.373349253731343 -3.845759701492538
H 3.5215477611940305 -4.019849253731343 -3.0234597014925377
C 3.7281477611940304 -2.060049253731343 -1.156659701492538
H 3.9048477611940298 -1.032549253731343 -0.8295597014925382
H 3.12924776119403 -2.623249253731343 -0.4404597014925382
H 4.68244776119403 -2.5769492537313434 -1.3005597014925383
C 3.1110477611940297 3.755250746268656 2.588740298507462
H 3.40124776119403 4.809350746268656 2.534540298507462
H 2.9823477611940303 3.461750746268656 3.634840298507462
H 3.86514776119403 3.1392507462686563 2.091540298507462
C 1.99744776119403 3.9574507462686572 0.40494029850746194
H 2.67914776119403 3.230350746268657 -0.04295970149253803
H 1.03214776119403 3.981150746268657 -0.10175970149253821
H 2.4399477611940297 4.958250746268657 0.368240298507462
C 0.7418477611940297 4.4992507462686575 2.475440298507462
H -0.18475223880597014 4.424250746268656 1.901240298507462
H 0.57844776119403 4.189650746268656 3.511940298507462
H 1.1210477611940297 5.524350746268658 2.4432402985074617
N 3.00114776119403 -2.025349253731343 -2.490159701492538
N 1.7831477611940298 3.586450746268657 1.862540298507462
C -3.55075223880597 -3.8435492537313434 0.6444402985074619
H -2.62515223880597 -2.2736492537313433 1.7424402985074618
H -4.67195223880597 -1.3478492537313436 1.5102402985074619
H -4.83415223880597 -1.6757492537313432 -0.1945597014925382
H -3.7169522388059697 0.17335074626865676 -0.900559701492538
H -3.9132522388059705 -4.043149253731343 -0.34225970149253815
H -4.35435223880597 -3.9354492537313432 1.3449402985074619
H -2.78115223880597 -4.545049253731343 0.8904402985074619
H -5.24235223880597 1.138950746268657 1.5249402985074618
H -5.92805223880597 0.6501507462686567 -0.006059701492538094
H -4.89895223880597 2.059650746268657 0.08004029850746197
O -4.720106550758807 2.2655381009259923 -8.107375439655451
H -4.679660188265064 2.296140370875925 -7.13970041686374
H -3.9815489710796887 2.825387745223883 -8.390329537660847
O -7.2655883392134255 5.5787067076352255 8.229123073005072
H -7.311790804357878 6.5198876446850225 8.454979516013996
H -6.741966570197765 5.191275970736095 8.946534817694763
O 4.733898926549362 -3.2471824989014597 4.7548275402763736
H 5.641812411731701 -3.577253518213072 4.67923929691371
H 4.674504994896336 -2.9328903177996977 5.669515864286849
O -4.28134215469565 -2.3113074187393803 -4.57064585858356
H -4.522664942499565 -1.732408912402973 -3.831993580208935
H -4.788069543887687 -1.9603333474666407 -5.318313230238133
O 9.11423944915326 0.42574496044927274 -13.97749704880312
H 9.874623248554972 0.6773470990797263 -14.522914502084548
H 9.425538631105914 -0.34839084793951375 -13.484781599699028
O 0.2506988472416799 0.5205054139778463 -5.895107110455655
H 0.21997744712442896 -0.10973205257421337 -5.159699544388458
H 1.1808770270119993 0.7891807900014374 -5.934401391181437
O 0.1384420734921658 6.152519486580026 0.1556045327687489
H -0.05631670387520643 6.4341732887845 -0.7508763061032764
H -0.16833311557930997 6.892020395736806 0.7014885250477463
O -2.8522588412762127 -9.970912952300516 -3.3272245022742313
H -2.7409025721125624 -9.982075151126592 -4.28974335587416
H -3.809305769857901 -9.883317566694817 -3.203328702454604
O -2.181447023177077 4.666290857286575 -2.7321457613415525
H -1.8316794168745305 4.5126110425463875 -3.6226582503178775
H -1.8424436252120917 3.919890890597058 -2.2154972055571767
O -1.0782298150074625 -1.2188539837945385 -6.404358068200706
H -0.7925598224291123 -2.1115846185509044 -6.158610177044378
H -2.011363431941444 -1.3286390581626288 -6.641361938830907
C -10.330704548909253 6.066333464494499 10.347826467452206
O -10.800725725429336 7.046673050720382 10.848658421905137
O -9.86068337238917 5.085993878268616 9.846994512999276
C -9.097363516851404 -5.607091484885297 -9.415502700771656
O -8.354935230427731 -6.250417860307416 -10.141248463972687
O -10.332359503193917 -5.614120178480064 -9.473528344104894
O -8.728577293716 -4.8494626016007665 -8.510713453908853