104

C -5.0710522388059704 1.0783507462686561 0.47044029850746183
C -3.8153522388059704 0.1782507462686569 0.19534029850746193
C -4.11845223880597 -1.3219492537313435 0.5608402985074619
C -2.96945223880597 -2.3874492537313436 0.7034402985074619
C -2.52015223880597 0.7359507462686565 0.7384402985074618
C -2.20305223880597 0.7852507462686571 2.097440298507462
C -1.5755522388059702 1.205650746268656 -0.18965970149253808
C -0.9533522388059701 1.2695507462686564 2.508640298507462
H -2.91125223880597 0.4298507462686567 2.840840298507462
C -0.32655223880597006 1.6562507462686575 0.21554029850746192
H -1.7850522388059702 1.178550746268657 -1.2573597014925382
C 0.004447761194029898 1.6956507462686563 1.569740298507462
H -0.7158522388059702 1.2676507462686573 3.5705402985074617
H 0.3943477611940298 1.9193507462686572 -0.5551597014925382
C -1.76045223880597 -2.1592492537313435 -0.1734597014925381
C -0.5287522388059701 -1.936549253731343 0.464840298507462
C -1.8068522388059702 -2.121249253731343 -1.5681597014925381
C 0.6114477611940299 -1.614449253731343 -0.2582597014925381
H -0.4544522388059702 -1.954049253731343 1.5506402985074619
C -0.6479522388059701 -1.8270492537313432 -2.2998597014925384
H -2.74345223880597 -2.290549253731343 -2.092259701492538
C 0.5698477611940298 -1.5506492537313434 -1.6506597014925382
H 1.5072477611940298 -1.351949253731343 0.2991402985074618
H -0.7173522388059701 -1.7640492537313435 -3.3840597014925375
C 1.7791477611940298 -1.082849253731343 -2.4255597014925376
H 1.4739477611940297 -0.9102492537313429 -3.464259701492538
H 2.1252477611940295 -0.1337492537313434 -2.0010597014925384
C 1.3965477611940298 2.0964507462686566 1.997440298507462
H 1.51704776119403 1.8448507462686567 3.057640298507462
H 2.1256477611940294 1.5207507462686571 1.4165402985074618
C 3.94864776119403 -1.4275492537313434 -3.522959701492538
H 4.81734776119403 -2.087049253731343 -3.615159701492538
H 3.4305477611940303 -1.3641492537313429 -4.484459701492538
H 4.26984776119403 -0.441449253731343 -3.176459701492538
C 2.60904776119403 -3.4296492537313434 -2.8992597014925376
H 1.9825477611940296 -3.869549253731343 -2.119359701492538
H 2.06294776119403 -3.373349253731343 -3.845759701492538
H 3.5215477611940305 -4.019849253731343 -3.0234597014925377
C 3.7281477611940304 -2.060049253731343 -1.156659701492538
H 3.9048477611940298 -1.032549253731343 -0.8295597014925382
H 3.12924776119403 -2.623249253731343 -0.4404597014925382
H 4.68244776119403 -2.5769492537313434 -1.3005597014925383
C 3.1110477611940297 3.755250746268656 2.588740298507462
H 3.40124776119403 4.809350746268656 2.534540298507462
H 2.9823477611940303 3.461750746268656 3.634840298507462
H 3.86514776119403 3.1392507462686563 2.091540298507462
C 1.99744776119403 3.9574507462686572 0.40494029850746194
H 2.67914776119403 3.230350746268657 -0.04295970149253803
H 1.03214776119403 3.981150746268657 -0.10175970149253821
H 2.4399477611940297 4.958250746268657 0.368240298507462
C 0.7418477611940297 4.4992507462686575 2.475440298507462
H -0.18475223880597014 4.424250746268656 1.901240298507462
H 0.57844776119403 4.189650746268656 3.511940298507462
H 1.1210477611940297 5.524350746268658 2.4432402985074617
N 3.00114776119403 -2.025349253731343 -2.490159701492538
N 1.7831477611940298 3.586450746268657 1.862540298507462
C -3.55075223880597 -3.8435492537313434 0.6444402985074619
H -2.62515223880597 -2.2736492537313433 1.7424402985074618
H -4.67195223880597 -1.3478492537313436 1.5102402985074619
H -4.83415223880597 -1.6757492537313432 -0.1945597014925382
H -3.7169522388059697 0.17335074626865676 -0.900559701492538
H -3.9132522388059705 -4.043149253731343 -0.34225970149253815
H -4.35435223880597 -3.9354492537313432 1.3449402985074619
H -2.78115223880597 -4.545049253731343 0.8904402985074619
H -5.24235223880597 1.138950746268657 1.5249402985074618
H -5.92805223880597 0.6501507462686567 -0.006059701492538094
H -4.89895223880597 2.059650746268657 0.08004029850746197
O 3.8443056911313342 5.652566261249693 7.847168269000816
H 3.78421599160269 4.696917544078538 7.698534106441588
H 3.937085668961499 6.022600891893697 6.956422406176863
O -2.719093666146096 -1.3868052394162196 10.235974509886155
H -3.322388399958626 -0.642721987504492 10.0898822949035
H -3.122361722680018 -2.115755577519532 9.741031863250791
O -1.2385453842505452 -7.993374105506152 -2.415548374468978
H -2.0700857573270075 -7.576099747041378 -2.1446423490437945
H -0.6676410903173011 -7.246555203775983 -2.650690373029693
O 12.624893093838782 -0.9354449784149029 13.089977684130913
H 12.321134556976753 -1.0290181536147571 12.174585872354962
H 11.809102833016444 -0.9686489929242592 13.61184518462111
O 2.2569061146026455 -7.981084422742311 -2.40809468876379
H 1.7668319310279474 -7.222130250428407 -2.7584990492117027
H 2.72884749869579 -7.621472623935443 -1.6419924577011629
O -5.291623301359565 4.089301885205089 -11.263964680093745
H -5.488880770607203 4.0816347774507555 -12.212646957352417
H -4.352865442887363 4.325806554282113 -11.221998396466873
O 5.901371921123757 13.453343591273118 -6.0982360398025035
H 5.072629878054959 13.333271941997047 -5.61065344988539
H 6.19291568639507 12.549453060338731 -6.290449684787914
O 1.7071409225264187 5.959795486448286 -2.3835159737036276
H 1.4504583654740695 5.694018148143961 -1.4877236829079672
H 1.8049803029321667 6.921955211087402 -2.323199605906824
O -7.081149480565205 1.0708629185546987 9.812211430164611
H -6.699587657792854 1.91480132569191 10.097072619625985
H -7.976417651937556 1.3041516411393153 9.524056580227212
O -2.900204687084411 0.2765474001714519 -6.1317404500710575
H -3.165977450366193 0.22213839497050042 -5.201486798989478
H -3.026164969831159 1.2105691664621134 -6.356905481915772
C 9.000146807316225 -2.619098444300705 12.482213726454757
O 8.267231338361423 -3.5205403765168533 12.770407438234145
O 9.733062276271028 -1.7176565120845568 12.19402001467537
C -5.922952041589579 -1.0497339418581464 5.9323924652458215
O -6.217004138695405 -2.162749367406411 6.3404433508952485
O -5.67887603633169 -0.07047553597188128 6.6466132590193165
O -5.823946626166673 -0.7303970018718445 4.742068882820806