104

C -5.0710522388059704 1.0783507462686561 0.47044029850746183
C -3.8153522388059704 0.1782507462686569 0.19534029850746193
C -4.11845223880597 -1.3219492537313435 0.5608402985074619
C -2.96945223880597 -2.3874492537313436 0.7034402985074619
C -2.52015223880597 0.7359507462686565 0.7384402985074618
C -2.20305223880597 0.7852507462686571 2.097440298507462
C -1.5755522388059702 1.205650746268656 -0.18965970149253808
C -0.9533522388059701 1.2695507462686564 2.508640298507462
H -2.91125223880597 0.4298507462686567 2.840840298507462
C -0.32655223880597006 1.6562507462686575 0.21554029850746192
H -1.7850522388059702 1.178550746268657 -1.2573597014925382
C 0.004447761194029898 1.6956507462686563 1.569740298507462
H -0.7158522388059702 1.2676507462686573 3.5705402985074617
H 0.3943477611940298 1.9193507462686572 -0.5551597014925382
C -1.76045223880597 -2.1592492537313435 -0.1734597014925381
C -0.5287522388059701 -1.936549253731343 0.464840298507462
C -1.8068522388059702 -2.121249253731343 -1.5681597014925381
C 0.6114477611940299 -1.614449253731343 -0.2582597014925381
H -0.4544522388059702 -1.954049253731343 1.5506402985074619
C -0.6479522388059701 -1.8270492537313432 -2.2998597014925384
H -2.74345223880597 -2.290549253731343 -2.092259701492538
C 0.5698477611940298 -1.5506492537313434 -1.6506597014925382
H 1.5072477611940298 -1.351949253731343 0.2991402985074618
H -0.7173522388059701 -1.7640492537313435 -3.3840597014925375
C 1.7791477611940298 -1.082849253731343 -2.4255597014925376
H 1.4739477611940297 -0.9102492537313429 -3.464259701492538
H 2.1252477611940295 -0.1337492537313434 -2.0010597014925384
C 1.3965477611940298 2.0964507462686566 1.997440298507462
H 1.51704776119403 1.8448507462686567 3.057640298507462
H 2.1256477611940294 1.5207507462686571 1.4165402985074618
C 3.94864776119403 -1.4275492537313434 -3.522959701492538
H 4.81734776119403 -2.087049253731343 -3.615159701492538
H 3.4305477611940303 -1.3641492537313429 -4.484459701492538
H 4.26984776119403 -0.441449253731343 -3.176459701492538
C 2.60904776119403 -3.4296492537313434 -2.8992597014925376
H 1.9825477611940296 -3.869549253731343 -2.119359701492538
H 2.06294776119403 -3.373349253731343 -3.845759701492538
H 3.5215477611940305 -4.019849253731343 -3.0234597014925377
C 3.7281477611940304 -2.060049253731343 -1.156659701492538
H 3.9048477611940298 -1.032549253731343 -0.8295597014925382
H 3.12924776119403 -2.623249253731343 -0.4404597014925382
H 4.68244776119403 -2.5769492537313434 -1.3005597014925383
C 3.1110477611940297 3.755250746268656 2.588740298507462
H 3.40124776119403 4.809350746268656 2.534540298507462
H 2.9823477611940303 3.461750746268656 3.634840298507462
H 3.86514776119403 3.1392507462686563 2.091540298507462
C 1.99744776119403 3.9574507462686572 0.40494029850746194
H 2.67914776119403 3.230350746268657 -0.04295970149253803
H 1.03214776119403 3.981150746268657 -0.10175970149253821
H 2.4399477611940297 4.958250746268657 0.368240298507462
C 0.7418477611940297 4.4992507462686575 2.475440298507462
H -0.18475223880597014 4.424250746268656 1.901240298507462
H 0.57844776119403 4.189650746268656 3.511940298507462
H 1.1210477611940297 5.524350746268658 2.4432402985074617
N 3.00114776119403 -2.025349253731343 -2.490159701492538
N 1.7831477611940298 3.586450746268657 1.862540298507462
C -3.55075223880597 -3.8435492537313434 0.6444402985074619
H -2.62515223880597 -2.2736492537313433 1.7424402985074618
H -4.67195223880597 -1.3478492537313436 1.5102402985074619
H -4.83415223880597 -1.6757492537313432 -0.1945597014925382
H -3.7169522388059697 0.17335074626865676 -0.900559701492538
H -3.9132522388059705 -4.043149253731343 -0.34225970149253815
H -4.35435223880597 -3.9354492537313432 1.3449402985074619
H -2.78115223880597 -4.545049253731343 0.8904402985074619
H -5.24235223880597 1.138950746268657 1.5249402985074618
H -5.92805223880597 0.6501507462686567 -0.006059701492538094
H -4.89895223880597 2.059650746268657 0.08004029850746197
O 2.511993732561365 2.7708093556391975 -2.259380504161249
H 2.0131649811635466 3.470748638255943 -2.706842496210686
H 3.0729054310140382 2.4003498594632227 -2.957305838657697
O 0.49087096544025705 -5.2162973312455545 0.7898677530871138
H 1.116709348981243 -5.955365703719709 0.7571322158956957
H -0.34318572307210804 -5.602079513907327 0.48248608123840875
O -7.932337883025905 -7.282198394115497 -8.306050422248944
H -8.38016741930254 -7.221102632843526 -7.448913693778595
H -7.190527960543852 -7.883187583967502 -8.140243375088096
O 3.46452247310126 5.392198447299418 7.52222942814731
H 3.328482710454672 5.76857425747645 8.404726900887399
H 3.8841195322112805 4.536026542064861 7.695058595168532
O -3.350905545716708 3.8949268153590184 3.213439661085569
H -3.0355588762696466 4.1438190860765065 2.3316366941220075
H -2.5691736224391404 3.5169039870188072 3.64350463952769
O -0.15261561389395398 0.7891412968434721 -3.5187644675566
H -0.060944686468302534 0.7520225065990362 -4.482707408490197
H -0.9890673931017882 0.33169367867652955 -3.34540921960189
O 5.229172368975086 -10.8426652170286 5.225194811486315
H 4.388931727246156 -11.3170295914808 5.136079935413181
H 5.727222978589492 -11.367785648170353 5.869520868200008
O -3.068068683006409 0.20622685694045473 12.902616368499306
H -3.1167291044765477 1.1318304706486264 13.185207009838901
H -3.9578032299075105 0.016247744116042462 12.569086284337262
O -3.554557388664988 -1.0233329748752513 8.349731345375165
H -3.3026846606038167 -1.4313251725404892 9.191794200750769
H -4.3249878409039235 -0.4801135913011458 8.574033739192704
O -3.479486036284376 -13.703392385241669 3.548945131572782
H -3.1890695005204335 -13.246314324525223 2.745387268649044
H -3.6230355353458776 -12.987803632804507 4.186352554658376
C -3.516899800654361 -1.7432482176343556 -8.063738521118669
O -3.8226837111841947 -1.6822031798381112 -9.219414929427472
O -3.2111158901245274 -1.8042932554305997 -6.908062112809865
C -9.9779489582094 6.108131571842861 11.048660788080483
O -10.41241251237198 6.5865548734020045 10.012259290961886
O -10.228239728533776 6.524636574647423 12.185546700135514
O -9.220744969498185 5.133421047742247 11.120978822396491