104

C -5.0710522388059704 1.0783507462686561 0.47044029850746183
C -3.8153522388059704 0.1782507462686569 0.19534029850746193
C -4.11845223880597 -1.3219492537313435 0.5608402985074619
C -2.96945223880597 -2.3874492537313436 0.7034402985074619
C -2.52015223880597 0.7359507462686565 0.7384402985074618
C -2.20305223880597 0.7852507462686571 2.097440298507462
C -1.5755522388059702 1.205650746268656 -0.18965970149253808
C -0.9533522388059701 1.2695507462686564 2.508640298507462
H -2.91125223880597 0.4298507462686567 2.840840298507462
C -0.32655223880597006 1.6562507462686575 0.21554029850746192
H -1.7850522388059702 1.178550746268657 -1.2573597014925382
C 0.004447761194029898 1.6956507462686563 1.569740298507462
H -0.7158522388059702 1.2676507462686573 3.5705402985074617
H 0.3943477611940298 1.9193507462686572 -0.5551597014925382
C -1.76045223880597 -2.1592492537313435 -0.1734597014925381
C -0.5287522388059701 -1.936549253731343 0.464840298507462
C -1.8068522388059702 -2.121249253731343 -1.5681597014925381
C 0.6114477611940299 -1.614449253731343 -0.2582597014925381
H -0.4544522388059702 -1.954049253731343 1.5506402985074619
C -0.6479522388059701 -1.8270492537313432 -2.2998597014925384
H -2.74345223880597 -2.290549253731343 -2.092259701492538
C 0.5698477611940298 -1.5506492537313434 -1.6506597014925382
H 1.5072477611940298 -1.351949253731343 0.2991402985074618
H -0.7173522388059701 -1.7640492537313435 -3.3840597014925375
C 1.7791477611940298 -1.082849253731343 -2.4255597014925376
H 1.4739477611940297 -0.9102492537313429 -3.464259701492538
H 2.1252477611940295 -0.1337492537313434 -2.0010597014925384
C 1.3965477611940298 2.0964507462686566 1.997440298507462
H 1.51704776119403 1.8448507462686567 3.057640298507462
H 2.1256477611940294 1.5207507462686571 1.4165402985074618
C 3.94864776119403 -1.4275492537313434 -3.522959701492538
H 4.81734776119403 -2.087049253731343 -3.615159701492538
H 3.4305477611940303 -1.3641492537313429 -4.484459701492538
H 4.26984776119403 -0.441449253731343 -3.176459701492538
C 2.60904776119403 -3.4296492537313434 -2.8992597014925376
H 1.9825477611940296 -3.869549253731343 -2.119359701492538
H 2.06294776119403 -3.373349253731343 -3.845759701492538
H 3.5215477611940305 -4.019849253731343 -3.0234597014925377
C 3.7281477611940304 -2.060049253731343 -1.156659701492538
H 3.9048477611940298 -1.032549253731343 -0.8295597014925382
H 3.12924776119403 -2.623249253731343 -0.4404597014925382
H 4.68244776119403 -2.5769492537313434 -1.3005597014925383
C 3.1110477611940297 3.755250746268656 2.588740298507462
H 3.40124776119403 4.809350746268656 2.534540298507462
H 2.9823477611940303 3.461750746268656 3.634840298507462
H 3.86514776119403 3.1392507462686563 2.091540298507462
C 1.99744776119403 3.9574507462686572 0.40494029850746194
H 2.67914776119403 3.230350746268657 -0.04295970149253803
H 1.03214776119403 3.981150746268657 -0.10175970149253821
H 2.4399477611940297 4.958250746268657 0.368240298507462
C 0.7418477611940297 4.4992507462686575 2.475440298507462
H -0.18475223880597014 4.424250746268656 1.901240298507462
H 0.57844776119403 4.189650746268656 3.511940298507462
H 1.1210477611940297 5.524350746268658 2.4432402985074617
N 3.00114776119403 -2.025349253731343 -2.490159701492538
N 1.7831477611940298 3.586450746268657 1.862540298507462
C -3.55075223880597 -3.8435492537313434 0.6444402985074619
H -2.62515223880597 -2.2736492537313433 1.7424402985074618
H -4.67195223880597 -1.3478492537313436 1.5102402985074619
H -4.83415223880597 -1.6757492537313432 -0.1945597014925382
H -3.7169522388059697 0.17335074626865676 -0.900559701492538
H -3.9132522388059705 -4.043149253731343 -0.34225970149253815
H -4.35435223880597 -3.9354492537313432 1.3449402985074619
H -2.78115223880597 -4.545049253731343 0.8904402985074619
H -5.24235223880597 1.138950746268657 1.5249402985074618
H -5.92805223880597 0.6501507462686567 -0.006059701492538094
H -4.89895223880597 2.059650746268657 0.08004029850746197
O 9.298237701302153 6.896690211365344 9.527759421605067
H 9.298801473049702 6.888505775453748 10.496727973246568
H 9.114445162927325 5.976501129416514 9.286027544104593
O -5.9445713124349 -5.398956560941839 5.5413576278535475
H -5.885784633855223 -5.858091242631133 6.392654771858884
H -5.249548232060533 -4.725514753921906 5.590153064163241
O -0.04796143377385209 -9.649316274608793 -0.11572328201010224
H 0.10240956661948292 -9.602624432299974 -1.0718486874891728
H 0.8433177246174309 -9.717684893684773 0.2583210175627814
O 3.064194842745835 -1.535760151964769 -10.561095049020718
H 2.799871598831602 -1.9672683156104132 -11.387473463752022
H 3.5793608336008513 -0.7683815677878598 -10.852120915075629
O -10.055011536386061 6.147192173025557 10.85801363292503
H -10.05271654538013 6.0840152554835285 11.824952497076312
H -9.234643336302774 5.705012168504943 10.592618071179439
O 4.827923392194662 9.0324676513387 -5.448167484728158
H 4.45004496178745 8.889995804063508 -4.56732866776618
H 4.277039373757471 9.73296770227337 -5.828678221989299
O 5.384603786918765 0.32012337442599065 11.192490514246051
H 5.450507284047176 0.1637735305813654 10.238457594323469
H 6.124373459238778 -0.183634331478558 11.563881076804291
O -4.032020214450851 5.862634268551039 -5.414857105652682
H -4.36838869920582 5.840547639010417 -6.32333703397206
H -4.172683316422982 6.779744687783205 -5.135421397520419
O 0.7958002189460185 3.8534789294269642 -3.4457798932557964
H 0.26860724436238803 3.637663969051066 -2.661905651219732
H 1.6411360054585566 3.406249857287515 -3.289717375736327
O 1.4439572457568277 -0.2749256675187971 12.928382458627585
H 1.2943819910360306 0.5278327802507489 12.40667998152992
H 2.0742176133649193 0.0029213678441575575 13.609950385002152
C 0.9854972709610148 8.87307737757042 -1.2142596822295233
O 0.11090239436439497 8.462423193622834 -0.5076726739019661
O 1.8600921475576344 9.283731561518005 -1.9208466905570805
C 6.308486640979874 1.4443580566168972 -6.818484007371918
O 5.5750803062794505 0.4703244801004771 -6.890242203000858
O 7.467247310466471 1.4335677077914326 -6.387451823743827
O 6.00541045603003 2.5916007826026206 -7.165798473222528