104

C -5.0710522388059704 1.0783507462686561 0.47044029850746183
C -3.8153522388059704 0.1782507462686569 0.19534029850746193
C -4.11845223880597 -1.3219492537313435 0.5608402985074619
C -2.96945223880597 -2.3874492537313436 0.7034402985074619
C -2.52015223880597 0.7359507462686565 0.7384402985074618
C -2.20305223880597 0.7852507462686571 2.097440298507462
C -1.5755522388059702 1.205650746268656 -0.18965970149253808
C -0.9533522388059701 1.2695507462686564 2.508640298507462
H -2.91125223880597 0.4298507462686567 2.840840298507462
C -0.32655223880597006 1.6562507462686575 0.21554029850746192
H -1.7850522388059702 1.178550746268657 -1.2573597014925382
C 0.004447761194029898 1.6956507462686563 1.569740298507462
H -0.7158522388059702 1.2676507462686573 3.5705402985074617
H 0.3943477611940298 1.9193507462686572 -0.5551597014925382
C -1.76045223880597 -2.1592492537313435 -0.1734597014925381
C -0.5287522388059701 -1.936549253731343 0.464840298507462
C -1.8068522388059702 -2.121249253731343 -1.5681597014925381
C 0.6114477611940299 -1.614449253731343 -0.2582597014925381
H -0.4544522388059702 -1.954049253731343 1.5506402985074619
C -0.6479522388059701 -1.8270492537313432 -2.2998597014925384
H -2.74345223880597 -2.290549253731343 -2.092259701492538
C 0.5698477611940298 -1.5506492537313434 -1.6506597014925382
H 1.5072477611940298 -1.351949253731343 0.2991402985074618
H -0.7173522388059701 -1.7640492537313435 -3.3840597014925375
C 1.7791477611940298 -1.082849253731343 -2.4255597014925376
H 1.4739477611940297 -0.9102492537313429 -3.464259701492538
H 2.1252477611940295 -0.1337492537313434 -2.0010597014925384
C 1.3965477611940298 2.0964507462686566 1.997440298507462
H 1.51704776119403 1.8448507462686567 3.057640298507462
H 2.1256477611940294 1.5207507462686571 1.4165402985074618
C 3.94864776119403 -1.4275492537313434 -3.522959701492538
H 4.81734776119403 -2.087049253731343 -3.615159701492538
H 3.4305477611940303 -1.3641492537313429 -4.484459701492538
H 4.26984776119403 -0.441449253731343 -3.176459701492538
C 2.60904776119403 -3.4296492537313434 -2.8992597014925376
H 1.9825477611940296 -3.869549253731343 -2.119359701492538
H 2.06294776119403 -3.373349253731343 -3.845759701492538
H 3.5215477611940305 -4.019849253731343 -3.0234597014925377
C 3.7281477611940304 -2.060049253731343 -1.156659701492538
H 3.9048477611940298 -1.032549253731343 -0.8295597014925382
H 3.12924776119403 -2.623249253731343 -0.4404597014925382
H 4.68244776119403 -2.5769492537313434 -1.3005597014925383
C 3.1110477611940297 3.755250746268656 2.588740298507462
H 3.40124776119403 4.809350746268656 2.534540298507462
H 2.9823477611940303 3.461750746268656 3.634840298507462
H 3.86514776119403 3.1392507462686563 2.091540298507462
C 1.99744776119403 3.9574507462686572 0.40494029850746194
H 2.67914776119403 3.230350746268657 -0.04295970149253803
H 1.03214776119403 3.981150746268657 -0.10175970149253821
H 2.4399477611940297 4.958250746268657 0.368240298507462
C 0.7418477611940297 4.4992507462686575 2.475440298507462
H -0.18475223880597014 4.424250746268656 1.901240298507462
H 0.57844776119403 4.189650746268656 3.511940298507462
H 1.1210477611940297 5.524350746268658 2.4432402985074617
N 3.00114776119403 -2.025349253731343 -2.490159701492538
N 1.7831477611940298 3.586450746268657 1.862540298507462
C -3.55075223880597 -3.8435492537313434 0.6444402985074619
H -2.62515223880597 -2.2736492537313433 1.7424402985074618
H -4.67195223880597 -1.3478492537313436 1.5102402985074619
H -4.83415223880597 -1.6757492537313432 -0.1945597014925382
H -3.7169522388059697 0.17335074626865676 -0.900559701492538
H -3.9132522388059705 -4.043149253731343 -0.34225970149253815
H -4.35435223880597 -3.9354492537313432 1.3449402985074619
H -2.78115223880597 -4.545049253731343 0.8904402985074619
H -5.24235223880597 1.138950746268657 1.5249402985074618
H -5.92805223880597 0.6501507462686567 -0.006059701492538094
H -4.89895223880597 2.059650746268657 0.08004029850746197
O -0.0001735999745094141 0.24898488428332047 -6.194243599592493
H 0.7732729671150397 -0.2445979166178842 -5.882596710610886
H -0.6179754757858582 0.21113028656246738 -5.448690237333714
O 6.0673174052277545 4.82498741335667 5.98061224799973
H 5.479022027081886 5.251024864840296 6.621992006711795
H 5.974971354906912 3.879269715623815 6.170486383902984
O 5.929025211530289 6.397744176803411 -6.538337286071385
H 5.343324692859088 6.911352840303909 -5.962031464388556
H 5.321447166622454 5.903554386700259 -7.108939875448417
O 7.208866381192282 -12.44306359045503 7.049274277161416
H 7.616571738243942 -11.564198776697962 7.030826028704272
H 6.257509667173357 -12.260242393519118 7.027855665114081
O -2.8309737657801888 5.575194070622469 6.095956089032983
H -2.8196590680036686 5.553527081202962 5.127261154554784
H -3.7601888123409846 5.7404352939027925 6.315539056664445
O 7.813317746501468 5.479672600218463 -9.257796872670703
H 7.951967872584841 5.071550266267815 -8.389937632950492
H 7.54980989647101 6.388615098269117 -9.049592423847526
O -6.00609857958975 7.087736362243292 -7.279725473121252
H -6.737324714880577 6.488741184545754 -7.492986986439377
H -5.232228826511425 6.506189395865567 -7.236243574964013
O -5.520610355994579 -1.4226288223817058 -8.610336398525074
H -4.716708983012336 -1.7789213902792076 -9.017479549613572
H -5.402472528267991 -0.4621668759577384 -8.660518541081231
O 8.083186792066336 -4.7968520159718535 -11.36701177833296
H 8.246374176557204 -4.5112036843801615 -10.45556114055716
H 7.7346679643222425 -5.695966077905462 -11.271667797709487
O -1.8197996357679294 7.335920314311705 2.9532143677790783
H -1.050906332782468 6.7679830654324995 2.79441346457123
H -2.406738867756368 7.1498586198645 2.2049862420632267
C -4.875863982366002 -10.908092470701337 4.896984741760703
O -5.705267593133697 -10.392146344842772 4.205097826898855
O -4.0464603715983065 -11.424038596559903 5.588871656622552
C -2.271301680352091 1.7926981400390716 -4.791431883069538
O -1.5823050700855497 2.428989878364532 -5.573858872238482
O -2.7111927630617583 2.2209684400680447 -3.7182534964228395
O -2.635290192686469 0.6220293899364826 -4.951729808264621