104

C -5.0710522388059704 1.0783507462686561 0.47044029850746183
C -3.8153522388059704 0.1782507462686569 0.19534029850746193
C -4.11845223880597 -1.3219492537313435 0.5608402985074619
C -2.96945223880597 -2.3874492537313436 0.7034402985074619
C -2.52015223880597 0.7359507462686565 0.7384402985074618
C -2.20305223880597 0.7852507462686571 2.097440298507462
C -1.5755522388059702 1.205650746268656 -0.18965970149253808
C -0.9533522388059701 1.2695507462686564 2.508640298507462
H -2.91125223880597 0.4298507462686567 2.840840298507462
C -0.32655223880597006 1.6562507462686575 0.21554029850746192
H -1.7850522388059702 1.178550746268657 -1.2573597014925382
C 0.004447761194029898 1.6956507462686563 1.569740298507462
H -0.7158522388059702 1.2676507462686573 3.5705402985074617
H 0.3943477611940298 1.9193507462686572 -0.5551597014925382
C -1.76045223880597 -2.1592492537313435 -0.1734597014925381
C -0.5287522388059701 -1.936549253731343 0.464840298507462
C -1.8068522388059702 -2.121249253731343 -1.5681597014925381
C 0.6114477611940299 -1.614449253731343 -0.2582597014925381
H -0.4544522388059702 -1.954049253731343 1.5506402985074619
C -0.6479522388059701 -1.8270492537313432 -2.2998597014925384
H -2.74345223880597 -2.290549253731343 -2.092259701492538
C 0.5698477611940298 -1.5506492537313434 -1.6506597014925382
H 1.5072477611940298 -1.351949253731343 0.2991402985074618
H -0.7173522388059701 -1.7640492537313435 -3.3840597014925375
C 1.7791477611940298 -1.082849253731343 -2.4255597014925376
H 1.4739477611940297 -0.9102492537313429 -3.464259701492538
H 2.1252477611940295 -0.1337492537313434 -2.0010597014925384
C 1.3965477611940298 2.0964507462686566 1.997440298507462
H 1.51704776119403 1.8448507462686567 3.057640298507462
H 2.1256477611940294 1.5207507462686571 1.4165402985074618
C 3.94864776119403 -1.4275492537313434 -3.522959701492538
H 4.81734776119403 -2.087049253731343 -3.615159701492538
H 3.4305477611940303 -1.3641492537313429 -4.484459701492538
H 4.26984776119403 -0.441449253731343 -3.176459701492538
C 2.60904776119403 -3.4296492537313434 -2.8992597014925376
H 1.9825477611940296 -3.869549253731343 -2.119359701492538
H 2.06294776119403 -3.373349253731343 -3.845759701492538
H 3.5215477611940305 -4.019849253731343 -3.0234597014925377
C 3.7281477611940304 -2.060049253731343 -1.156659701492538
H 3.9048477611940298 -1.032549253731343 -0.8295597014925382
H 3.12924776119403 -2.623249253731343 -0.4404597014925382
H 4.68244776119403 -2.5769492537313434 -1.3005597014925383
C 3.1110477611940297 3.755250746268656 2.588740298507462
H 3.40124776119403 4.809350746268656 2.534540298507462
H 2.9823477611940303 3.461750746268656 3.634840298507462
H 3.86514776119403 3.1392507462686563 2.091540298507462
C 1.99744776119403 3.9574507462686572 0.40494029850746194
H 2.67914776119403 3.230350746268657 -0.04295970149253803
H 1.03214776119403 3.981150746268657 -0.10175970149253821
H 2.4399477611940297 4.958250746268657 0.368240298507462
C 0.7418477611940297 4.4992507462686575 2.475440298507462
H -0.18475223880597014 4.424250746268656 1.901240298507462
H 0.57844776119403 4.189650746268656 3.511940298507462
H 1.1210477611940297 5.524350746268658 2.4432402985074617
N 3.00114776119403 -2.025349253731343 -2.490159701492538
N 1.7831477611940298 3.586450746268657 1.862540298507462
C -3.55075223880597 -3.8435492537313434 0.6444402985074619
H -2.62515223880597 -2.2736492537313433 1.7424402985074618
H -4.67195223880597 -1.3478492537313436 1.5102402985074619
H -4.83415223880597 -1.6757492537313432 -0.1945597014925382
H -3.7169522388059697 0.17335074626865676 -0.900559701492538
H -3.9132522388059705 -4.043149253731343 -0.34225970149253815
H -4.35435223880597 -3.9354492537313432 1.3449402985074619
H -2.78115223880597 -4.545049253731343 0.8904402985074619
H -5.24235223880597 1.138950746268657 1.5249402985074618
H -5.92805223880597 0.6501507462686567 -0.006059701492538094
H -4.89895223880597 2.059650746268657 0.08004029850746197
O 8.861252985567791 8.902735149642728 -10.175161567954158
H 9.02942227491819 8.404309298161472 -9.361369138894654
H 8.926663480024674 8.236298897506305 -10.875551554571087
O -13.416619867742327 -7.240989988994217 13.09618936519777
H -12.803680478545635 -6.858577877325803 12.450407947905129
H -12.850695496842743 -7.470851895653844 13.848422742939483
O -6.625234598995159 7.541863261716745 -6.514944977270505
H -6.407066442704256 6.712643058397013 -6.063542865083365
H -6.342872458073426 7.391726803073457 -7.429654007213987
O 3.649618770790315 -13.09250237936021 -3.7891903090606003
H 3.008330533149616 -13.81412027863444 -3.7056178218968543
H 3.515038981450471 -12.565714092087337 -2.9871028294217803
O 4.36914878981778 2.205718934640278 -4.8171365590394775
H 3.8677152569586566 1.5578410347819331 -4.299656128588663
H 5.2912821823194465 1.9282239883478431 -4.709301010561596
O -7.910792706629777 3.591763979680383 -11.901230905787399
H -8.613641289179368 3.188848234926676 -11.36960121367305
H -8.128163801502653 3.3348737384997498 -12.809921807799695
O 3.665693723456233 0.6440841021693606 5.741791954925574
H 3.9382631704646833 1.5517666918633286 5.943746330525512
H 2.7038799100247974 0.7054149776170588 5.641220307284211
O -2.2841468418976882 -10.531106995964066 -3.528777959807907
H -3.0546744695034462 -9.946387820807507 -3.5867263696262657
H -1.6695520354815108 -10.0520153320919 -2.952838426667092
O 0.37136974753505364 6.549666027457075 -1.3048972350143384
H 0.2090849297007235 7.501474761469873 -1.3866965544334806
H 1.3329626813192816 6.483917447861209 -1.205006803653938
O 4.875470491858763 7.576157190044449 6.1117173794655315
H 4.677103967529978 8.27338245140669 5.4686815998668585
H 4.427193143972706 6.794541092042549 5.755226651652691
C 0.5359806141529722 -0.43467728507220943 10.096917766281205
O 0.583185334591035 -0.8009390654610313 8.958303573547434
O 0.4887758937149093 -0.0684155046833877 11.235531959014976
C 5.373171171428488 13.340557903852531 5.6126424188279875
O 5.04320745777569 14.41414803101553 5.132742757304261
O 5.745950845836153 13.165634650773155 6.77843340952085
O 5.385370936313332 12.262873929243264 5.006757280367627