104

C -5.0710522388059704 1.0783507462686561 0.47044029850746183
C -3.8153522388059704 0.1782507462686569 0.19534029850746193
C -4.11845223880597 -1.3219492537313435 0.5608402985074619
C -2.96945223880597 -2.3874492537313436 0.7034402985074619
C -2.52015223880597 0.7359507462686565 0.7384402985074618
C -2.20305223880597 0.7852507462686571 2.097440298507462
C -1.5755522388059702 1.205650746268656 -0.18965970149253808
C -0.9533522388059701 1.2695507462686564 2.508640298507462
H -2.91125223880597 0.4298507462686567 2.840840298507462
C -0.32655223880597006 1.6562507462686575 0.21554029850746192
H -1.7850522388059702 1.178550746268657 -1.2573597014925382
C 0.004447761194029898 1.6956507462686563 1.569740298507462
H -0.7158522388059702 1.2676507462686573 3.5705402985074617
H 0.3943477611940298 1.9193507462686572 -0.5551597014925382
C -1.76045223880597 -2.1592492537313435 -0.1734597014925381
C -0.5287522388059701 -1.936549253731343 0.464840298507462
C -1.8068522388059702 -2.121249253731343 -1.5681597014925381
C 0.6114477611940299 -1.614449253731343 -0.2582597014925381
H -0.4544522388059702 -1.954049253731343 1.5506402985074619
C -0.6479522388059701 -1.8270492537313432 -2.2998597014925384
H -2.74345223880597 -2.290549253731343 -2.092259701492538
C 0.5698477611940298 -1.5506492537313434 -1.6506597014925382
H 1.5072477611940298 -1.351949253731343 0.2991402985074618
H -0.7173522388059701 -1.7640492537313435 -3.3840597014925375
C 1.7791477611940298 -1.082849253731343 -2.4255597014925376
H 1.4739477611940297 -0.9102492537313429 -3.464259701492538
H 2.1252477611940295 -0.1337492537313434 -2.0010597014925384
C 1.3965477611940298 2.0964507462686566 1.997440298507462
H 1.51704776119403 1.8448507462686567 3.057640298507462
H 2.1256477611940294 1.5207507462686571 1.4165402985074618
C 3.94864776119403 -1.4275492537313434 -3.522959701492538
H 4.81734776119403 -2.087049253731343 -3.615159701492538
H 3.4305477611940303 -1.3641492537313429 -4.484459701492538
H 4.26984776119403 -0.441449253731343 -3.176459701492538
C 2.60904776119403 -3.4296492537313434 -2.8992597014925376
H 1.9825477611940296 -3.869549253731343 -2.119359701492538
H 2.06294776119403 -3.373349253731343 -3.845759701492538
H 3.5215477611940305 -4.019849253731343 -3.0234597014925377
C 3.7281477611940304 -2.060049253731343 -1.156659701492538
H 3.9048477611940298 -1.032549253731343 -0.8295597014925382
H 3.12924776119403 -2.623249253731343 -0.4404597014925382
H 4.68244776119403 -2.5769492537313434 -1.3005597014925383
C 3.1110477611940297 3.755250746268656 2.588740298507462
H 3.40124776119403 4.809350746268656 2.534540298507462
H 2.9823477611940303 3.461750746268656 3.634840298507462
H 3.86514776119403 3.1392507462686563 2.091540298507462
C 1.99744776119403 3.9574507462686572 0.40494029850746194
H 2.67914776119403 3.230350746268657 -0.04295970149253803
H 1.03214776119403 3.981150746268657 -0.10175970149253821
H 2.4399477611940297 4.958250746268657 0.368240298507462
C 0.7418477611940297 4.4992507462686575 2.475440298507462
H -0.18475223880597014 4.424250746268656 1.901240298507462
H 0.57844776119403 4.189650746268656 3.511940298507462
H 1.1210477611940297 5.524350746268658 2.4432402985074617
N 3.00114776119403 -2.025349253731343 -2.490159701492538
N 1.7831477611940298 3.586450746268657 1.862540298507462
C -3.55075223880597 -3.8435492537313434 0.6444402985074619
H -2.62515223880597 -2.2736492537313433 1.7424402985074618
H -4.67195223880597 -1.3478492537313436 1.5102402985074619
H -4.83415223880597 -1.6757492537313432 -0.1945597014925382
H -3.7169522388059697 0.17335074626865676 -0.900559701492538
H -3.9132522388059705 -4.043149253731343 -0.34225970149253815
H -4.35435223880597 -3.9354492537313432 1.3449402985074619
H -2.78115223880597 -4.545049253731343 0.8904402985074619
H -5.24235223880597 1.138950746268657 1.5249402985074618
H -5.92805223880597 0.6501507462686567 -0.006059701492538094
H -4.89895223880597 2.059650746268657 0.08004029850746197
O 7.194256343949039 7.646028516131499 -7.093097143637035
H 6.922328114569901 7.623691130357324 -8.022894667920415
H 6.546202999676355 8.231780446912627 -6.673712495774037
O 2.190569378681566 -2.7194250054260793 4.024021050741263
H 1.374959980269947 -2.9057007075945718 4.512948477773407
H 1.887153425685141 -2.545105134272468 3.1204098034184677
O -4.439465760964811 9.683042739900891 -4.870672982414891
H -3.6580401211215774 9.259936284276924 -4.484250605339082
H -4.882520474256603 10.093079593694847 -4.1126926107292645
O -2.855736939311496 -4.370069192736151 -6.479194924396576
H -2.0194793074679227 -4.4929411833146204 -6.953054612505476
H -2.647081545983829 -4.62187056343949 -5.567043105428267
O -3.155522009175571 -0.47390538493781786 -6.233441810802648
H -2.879761227195356 0.14485196353290675 -5.540576245389603
H -4.122337808861272 -0.4818474511406388 -6.1688966532575
O 7.592556864998339 12.984831905640634 -8.075599292662648
H 7.331624095015034 13.050631953364181 -7.144711651661641
H 8.2749683734448 12.29689109501966 -8.07933004620344
O -2.4072875323722145 8.637775031809962 -2.212328893860131
H -1.9154378003989478 8.936393735105892 -2.9919942503430814
H -1.7954250711281785 8.03233155323809 -1.7673294926524679
O -8.113137019098463 5.750415430753584 -11.901498450620819
H -8.517884364110028 6.534213869218823 -11.500491029909501
H -7.290221201510647 6.084328977790395 -12.289149381961208
O -6.155385460494979 -4.011833323946321 -6.6234329544033415
H -7.029007142524148 -4.331540763173845 -6.352250973270551
H -5.620748746297248 -4.817472796603497 -6.68723395932113
O -5.702750317604466 -9.498894818645187 7.035469261121156
H -4.9103904521562995 -10.020389017616342 7.23340107000088
H -6.255737981969163 -10.101449307808153 6.515762925822043
C -2.7898741096101363 6.240892426504149 -2.8567670724055354
O -3.579573559749515 6.4353448388890415 -1.9784839204168057
O -2.0001746594707575 6.0464400141192565 -3.735050224394265
C 2.4622964385692936 1.5504395858054394 -12.706210601871142
O 2.7835393158285697 1.3867186247428918 -13.873161311763782
O 3.1378216696162164 2.144133594251525 -11.85778585526469
O 1.4119520766089486 1.1477584316358043 -12.193109253427458