104

C -5.0710522388059704 1.0783507462686561 0.47044029850746183
C -3.8153522388059704 0.1782507462686569 0.19534029850746193
C -4.11845223880597 -1.3219492537313435 0.5608402985074619
C -2.96945223880597 -2.3874492537313436 0.7034402985074619
C -2.52015223880597 0.7359507462686565 0.7384402985074618
C -2.20305223880597 0.7852507462686571 2.097440298507462
C -1.5755522388059702 1.205650746268656 -0.18965970149253808
C -0.9533522388059701 1.2695507462686564 2.508640298507462
H -2.91125223880597 0.4298507462686567 2.840840298507462
C -0.32655223880597006 1.6562507462686575 0.21554029850746192
H -1.7850522388059702 1.178550746268657 -1.2573597014925382
C 0.004447761194029898 1.6956507462686563 1.569740298507462
H -0.7158522388059702 1.2676507462686573 3.5705402985074617
H 0.3943477611940298 1.9193507462686572 -0.5551597014925382
C -1.76045223880597 -2.1592492537313435 -0.1734597014925381
C -0.5287522388059701 -1.936549253731343 0.464840298507462
C -1.8068522388059702 -2.121249253731343 -1.5681597014925381
C 0.6114477611940299 -1.614449253731343 -0.2582597014925381
H -0.4544522388059702 -1.954049253731343 1.5506402985074619
C -0.6479522388059701 -1.8270492537313432 -2.2998597014925384
H -2.74345223880597 -2.290549253731343 -2.092259701492538
C 0.5698477611940298 -1.5506492537313434 -1.6506597014925382
H 1.5072477611940298 -1.351949253731343 0.2991402985074618
H -0.7173522388059701 -1.7640492537313435 -3.3840597014925375
C 1.7791477611940298 -1.082849253731343 -2.4255597014925376
H 1.4739477611940297 -0.9102492537313429 -3.464259701492538
H 2.1252477611940295 -0.1337492537313434 -2.0010597014925384
C 1.3965477611940298 2.0964507462686566 1.997440298507462
H 1.51704776119403 1.8448507462686567 3.057640298507462
H 2.1256477611940294 1.5207507462686571 1.4165402985074618
C 3.94864776119403 -1.4275492537313434 -3.522959701492538
H 4.81734776119403 -2.087049253731343 -3.615159701492538
H 3.4305477611940303 -1.3641492537313429 -4.484459701492538
H 4.26984776119403 -0.441449253731343 -3.176459701492538
C 2.60904776119403 -3.4296492537313434 -2.8992597014925376
H 1.9825477611940296 -3.869549253731343 -2.119359701492538
H 2.06294776119403 -3.373349253731343 -3.845759701492538
H 3.5215477611940305 -4.019849253731343 -3.0234597014925377
C 3.7281477611940304 -2.060049253731343 -1.156659701492538
H 3.9048477611940298 -1.032549253731343 -0.8295597014925382
H 3.12924776119403 -2.623249253731343 -0.4404597014925382
H 4.68244776119403 -2.5769492537313434 -1.3005597014925383
C 3.1110477611940297 3.755250746268656 2.588740298507462
H 3.40124776119403 4.809350746268656 2.534540298507462
H 2.9823477611940303 3.461750746268656 3.634840298507462
H 3.86514776119403 3.1392507462686563 2.091540298507462
C 1.99744776119403 3.9574507462686572 0.40494029850746194
H 2.67914776119403 3.230350746268657 -0.04295970149253803
H 1.03214776119403 3.981150746268657 -0.10175970149253821
H 2.4399477611940297 4.958250746268657 0.368240298507462
C 0.7418477611940297 4.4992507462686575 2.475440298507462
H -0.18475223880597014 4.424250746268656 1.901240298507462
H 0.57844776119403 4.189650746268656 3.511940298507462
H 1.1210477611940297 5.524350746268658 2.4432402985074617
N 3.00114776119403 -2.025349253731343 -2.490159701492538
N 1.7831477611940298 3.586450746268657 1.862540298507462
C -3.55075223880597 -3.8435492537313434 0.6444402985074619
H -2.62515223880597 -2.2736492537313433 1.7424402985074618
H -4.67195223880597 -1.3478492537313436 1.5102402985074619
H -4.83415223880597 -1.6757492537313432 -0.1945597014925382
H -3.7169522388059697 0.17335074626865676 -0.900559701492538
H -3.9132522388059705 -4.043149253731343 -0.34225970149253815
H -4.35435223880597 -3.9354492537313432 1.3449402985074619
H -2.78115223880597 -4.545049253731343 0.8904402985074619
H -5.24235223880597 1.138950746268657 1.5249402985074618
H -5.92805223880597 0.6501507462686567 -0.006059701492538094
H -4.89895223880597 2.059650746268657 0.08004029850746197
O 8.991944077441763 0.080242175319513 10.311112293240445
H 8.599222446546442 0.9590504943109334 10.199608858322977
H 9.44591951616157 -0.08162552733247208 9.470477359290323
O 4.462661299169873 -0.5152571986889168 -7.8531217155120165
H 4.674870736259223 -1.203503893169522 -8.501389406552333
H 3.9960250429928004 -0.9917410795179684 -7.1501454285498385
O 2.5681107381260144 -1.5864729000226554 6.87298228452907
H 2.0264468460064067 -2.328289300917374 6.564314158157971
H 2.423178387559772 -1.5735323827128993 7.8309953852072915
O 4.374797798590642 1.677771565041367 -4.289136523567152
H 4.525214754141398 1.678250795185386 -5.246393995056048
H 3.5255607291730215 2.1327459302830327 -4.185422150407428
O 7.247605388187277 -3.447422374984182 -6.940553179776652
H 6.627039646599039 -2.7032139046989982 -6.936163416362966
H 6.990547744440986 -3.961929805387403 -7.720402791016844
O 6.38997137484001 -10.117720432518182 -7.440573966187418
H 6.443096595261377 -10.125406510540426 -8.408089336638874
H 7.256812297371334 -10.44413558590163 -7.155965626592981
O -5.933311812372743 2.202916044340403 6.397506985882361
H -6.269788057719173 2.7140397094211943 7.14884159323913
H -6.538264535118913 1.4482883445187058 6.338083234706508
O 0.9522373282552561 -11.222654234668637 -1.1764419160554507
H 0.5995586181420581 -11.396429601633553 -2.0620982863081014
H 1.8823390673651152 -11.001304214659358 -1.3341659403723125
O 7.836321400769953 -2.5510715987358377 8.937976983962246
H 7.535025530075661 -1.6301008753412454 8.936936862521843
H 8.201823085227069 -2.6787659511653947 8.049683893075793
O 8.363311500289873 3.0648763712493015 12.117415462839578
H 8.397547870151477 3.0280343969915773 13.085112676234086
H 9.019358318875597 2.4100857912122473 11.834902078345518
C 5.278145416176757 8.89803145181081 6.632301584241696
O 5.788878950649914 8.497624442572981 7.638106605614016
O 4.767411881703601 9.29843846104864 5.6264965628693755
C -5.629210096985377 -6.559216202963795 9.802519484630919
O -5.817268474335303 -7.765270290551384 9.759588340670133
O -4.99991116438521 -5.905859816199186 8.962436304581356
O -6.039101030845837 -5.80541994888028 10.692704304805167