104

C -5.0710522388059704 1.0783507462686561 0.47044029850746183
C -3.8153522388059704 0.1782507462686569 0.19534029850746193
C -4.11845223880597 -1.3219492537313435 0.5608402985074619
C -2.96945223880597 -2.3874492537313436 0.7034402985074619
C -2.52015223880597 0.7359507462686565 0.7384402985074618
C -2.20305223880597 0.7852507462686571 2.097440298507462
C -1.5755522388059702 1.205650746268656 -0.18965970149253808
C -0.9533522388059701 1.2695507462686564 2.508640298507462
H -2.91125223880597 0.4298507462686567 2.840840298507462
C -0.32655223880597006 1.6562507462686575 0.21554029850746192
H -1.7850522388059702 1.178550746268657 -1.2573597014925382
C 0.004447761194029898 1.6956507462686563 1.569740298507462
H -0.7158522388059702 1.2676507462686573 3.5705402985074617
H 0.3943477611940298 1.9193507462686572 -0.5551597014925382
C -1.76045223880597 -2.1592492537313435 -0.1734597014925381
C -0.5287522388059701 -1.936549253731343 0.464840298507462
C -1.8068522388059702 -2.121249253731343 -1.5681597014925381
C 0.6114477611940299 -1.614449253731343 -0.2582597014925381
H -0.4544522388059702 -1.954049253731343 1.5506402985074619
C -0.6479522388059701 -1.8270492537313432 -2.2998597014925384
H -2.74345223880597 -2.290549253731343 -2.092259701492538
C 0.5698477611940298 -1.5506492537313434 -1.6506597014925382
H 1.5072477611940298 -1.351949253731343 0.2991402985074618
H -0.7173522388059701 -1.7640492537313435 -3.3840597014925375
C 1.7791477611940298 -1.082849253731343 -2.4255597014925376
H 1.4739477611940297 -0.9102492537313429 -3.464259701492538
H 2.1252477611940295 -0.1337492537313434 -2.0010597014925384
C 1.3965477611940298 2.0964507462686566 1.997440298507462
H 1.51704776119403 1.8448507462686567 3.057640298507462
H 2.1256477611940294 1.5207507462686571 1.4165402985074618
C 3.94864776119403 -1.4275492537313434 -3.522959701492538
H 4.81734776119403 -2.087049253731343 -3.615159701492538
H 3.4305477611940303 -1.3641492537313429 -4.484459701492538
H 4.26984776119403 -0.441449253731343 -3.176459701492538
C 2.60904776119403 -3.4296492537313434 -2.8992597014925376
H 1.9825477611940296 -3.869549253731343 -2.119359701492538
H 2.06294776119403 -3.373349253731343 -3.845759701492538
H 3.5215477611940305 -4.019849253731343 -3.0234597014925377
C 3.7281477611940304 -2.060049253731343 -1.156659701492538
H 3.9048477611940298 -1.032549253731343 -0.8295597014925382
H 3.12924776119403 -2.623249253731343 -0.4404597014925382
H 4.68244776119403 -2.5769492537313434 -1.3005597014925383
C 3.1110477611940297 3.755250746268656 2.588740298507462
H 3.40124776119403 4.809350746268656 2.534540298507462
H 2.9823477611940303 3.461750746268656 3.634840298507462
H 3.86514776119403 3.1392507462686563 2.091540298507462
C 1.99744776119403 3.9574507462686572 0.40494029850746194
H 2.67914776119403 3.230350746268657 -0.04295970149253803
H 1.03214776119403 3.981150746268657 -0.10175970149253821
H 2.4399477611940297 4.958250746268657 0.368240298507462
C 0.7418477611940297 4.4992507462686575 2.475440298507462
H -0.18475223880597014 4.424250746268656 1.901240298507462
H 0.57844776119403 4.189650746268656 3.511940298507462
H 1.1210477611940297 5.524350746268658 2.4432402985074617
N 3.00114776119403 -2.025349253731343 -2.490159701492538
N 1.7831477611940298 3.586450746268657 1.862540298507462
C -3.55075223880597 -3.8435492537313434 0.6444402985074619
H -2.62515223880597 -2.2736492537313433 1.7424402985074618
H -4.67195223880597 -1.3478492537313436 1.5102402985074619
H -4.83415223880597 -1.6757492537313432 -0.1945597014925382
H -3.7169522388059697 0.17335074626865676 -0.900559701492538
H -3.9132522388059705 -4.043149253731343 -0.34225970149253815
H -4.35435223880597 -3.9354492537313432 1.3449402985074619
H -2.78115223880597 -4.545049253731343 0.8904402985074619
H -5.24235223880597 1.138950746268657 1.5249402985074618
H -5.92805223880597 0.6501507462686567 -0.006059701492538094
H -4.89895223880597 2.059650746268657 0.08004029850746197
O -1.2620164200592838 2.7340584757530433 -5.362797105007927
H -2.1579330412177686 3.027010013347046 -5.587475011027357
H -1.1412094940802804 1.9277207737823687 -5.886425925181297
O 1.6029646949790735 -9.514756830618365 2.765785828026469
H 2.088064305859387 -9.984822732410253 2.071031358881901
H 1.7171687518737087 -8.579560631248691 2.539230213721008
O -1.0425784251028365 -0.17351769690636748 -5.271794436828491
H -1.3797787295848094 -0.6613390407520938 -6.038145301671622
H -0.08243307491102181 -0.16718895493508876 -5.402342503953583
O 3.5363910752952483 -2.3269602303017916 6.009865859614127
H 3.9593490553005353 -1.5949784134592324 5.536287435420505
H 3.4944584914624484 -2.018816365750306 6.9276081771806535
O -0.37529169251241934 -0.010860319327099046 -14.11501162731533
H 0.033957206675569854 0.6414981968528537 -14.703153669496391
H 0.34262273254902276 -0.6310627322520848 -13.917755982045735
O -2.1704635141209483 1.5890795070538786 13.008995256780903
H -2.4216030364449583 0.657599854143103 12.918210051818365
H -2.9924063683791515 2.0283032389082685 13.274427737856186
O -5.193742697047245 -1.671326200500421 8.400278453617444
H -5.116216401844237 -2.2723125779691644 7.644122117567092
H -5.5356344097197905 -2.233285518154436 9.111807600179738
O 6.274667792696166 5.389276861848499 7.750072737754915
H 6.632424647983944 4.797459695812781 8.428843561656512
H 7.0605187978143285 5.716962027462786 7.287446998856709
O 6.40441917202221 -1.8743742292851662 8.627063873747188
H 6.931677801145994 -1.245559539649706 8.111740886667075
H 6.920803417234533 -2.004618338113818 9.4365981396754
O -0.5775904878440806 12.655731634298565 0.04309262557106153
H 0.1416423908278795 13.282380839040712 -0.12714895963443845
H -0.4114211388919494 12.348646205369809 0.9469998282796506
C -0.7934918788841911 -0.05628237285319792 9.974939203271521
O -0.03917917156852313 -0.9830031108518742 9.904092392155587
O -1.5478045861998588 0.8704383651454779 10.045786014387456
C 3.5259315176557946 14.237791884162073 -3.5650257061477606
O 3.2719930988655745 14.079336696905902 -2.3808877362751897
O 2.9536807084973384 13.664890686153626 -4.499340799056988
O 4.394472631372577 14.995578477577718 -4.012288712692147