104

C -5.0710522388059704 1.0783507462686561 0.47044029850746183
C -3.8153522388059704 0.1782507462686569 0.19534029850746193
C -4.11845223880597 -1.3219492537313435 0.5608402985074619
C -2.96945223880597 -2.3874492537313436 0.7034402985074619
C -2.52015223880597 0.7359507462686565 0.7384402985074618
C -2.20305223880597 0.7852507462686571 2.097440298507462
C -1.5755522388059702 1.205650746268656 -0.18965970149253808
C -0.9533522388059701 1.2695507462686564 2.508640298507462
H -2.91125223880597 0.4298507462686567 2.840840298507462
C -0.32655223880597006 1.6562507462686575 0.21554029850746192
H -1.7850522388059702 1.178550746268657 -1.2573597014925382
C 0.004447761194029898 1.6956507462686563 1.569740298507462
H -0.7158522388059702 1.2676507462686573 3.5705402985074617
H 0.3943477611940298 1.9193507462686572 -0.5551597014925382
C -1.76045223880597 -2.1592492537313435 -0.1734597014925381
C -0.5287522388059701 -1.936549253731343 0.464840298507462
C -1.8068522388059702 -2.121249253731343 -1.5681597014925381
C 0.6114477611940299 -1.614449253731343 -0.2582597014925381
H -0.4544522388059702 -1.954049253731343 1.5506402985074619
C -0.6479522388059701 -1.8270492537313432 -2.2998597014925384
H -2.74345223880597 -2.290549253731343 -2.092259701492538
C 0.5698477611940298 -1.5506492537313434 -1.6506597014925382
H 1.5072477611940298 -1.351949253731343 0.2991402985074618
H -0.7173522388059701 -1.7640492537313435 -3.3840597014925375
C 1.7791477611940298 -1.082849253731343 -2.4255597014925376
H 1.4739477611940297 -0.9102492537313429 -3.464259701492538
H 2.1252477611940295 -0.1337492537313434 -2.0010597014925384
C 1.3965477611940298 2.0964507462686566 1.997440298507462
H 1.51704776119403 1.8448507462686567 3.057640298507462
H 2.1256477611940294 1.5207507462686571 1.4165402985074618
C 3.94864776119403 -1.4275492537313434 -3.522959701492538
H 4.81734776119403 -2.087049253731343 -3.615159701492538
H 3.4305477611940303 -1.3641492537313429 -4.484459701492538
H 4.26984776119403 -0.441449253731343 -3.176459701492538
C 2.60904776119403 -3.4296492537313434 -2.8992597014925376
H 1.9825477611940296 -3.869549253731343 -2.119359701492538
H 2.06294776119403 -3.373349253731343 -3.845759701492538
H 3.5215477611940305 -4.019849253731343 -3.0234597014925377
C 3.7281477611940304 -2.060049253731343 -1.156659701492538
H 3.9048477611940298 -1.032549253731343 -0.8295597014925382
H 3.12924776119403 -2.623249253731343 -0.4404597014925382
H 4.68244776119403 -2.5769492537313434 -1.3005597014925383
C 3.1110477611940297 3.755250746268656 2.588740298507462
H 3.40124776119403 4.809350746268656 2.534540298507462
H 2.9823477611940303 3.461750746268656 3.634840298507462
H 3.86514776119403 3.1392507462686563 2.091540298507462
C 1.99744776119403 3.9574507462686572 0.40494029850746194
H 2.67914776119403 3.230350746268657 -0.04295970149253803
H 1.03214776119403 3.981150746268657 -0.10175970149253821
H 2.4399477611940297 4.958250746268657 0.368240298507462
C 0.7418477611940297 4.4992507462686575 2.475440298507462
H -0.18475223880597014 4.424250746268656 1.901240298507462
H 0.57844776119403 4.189650746268656 3.511940298507462
H 1.1210477611940297 5.524350746268658 2.4432402985074617
N 3.00114776119403 -2.025349253731343 -2.490159701492538
N 1.7831477611940298 3.586450746268657 1.862540298507462
C -3.55075223880597 -3.8435492537313434 0.6444402985074619
H -2.62515223880597 -2.2736492537313433 1.7424402985074618
H -4.67195223880597 -1.3478492537313436 1.5102402985074619
H -4.83415223880597 -1.6757492537313432 -0.1945597014925382
H -3.7169522388059697 0.17335074626865676 -0.900559701492538
H -3.9132522388059705 -4.043149253731343 -0.34225970149253815
H -4.35435223880597 -3.9354492537313432 1.3449402985074619
H -2.78115223880597 -4.545049253731343 0.8904402985074619
H -5.24235223880597 1.138950746268657 1.5249402985074618
H -5.92805223880597 0.6501507462686567 -0.006059701492538094
H -4.89895223880597 2.059650746268657 0.08004029850746197
O -0.7102820420406073 3.2551299792918753 -2.2979446049274133
H -1.0025455190257062 3.921631882148692 -1.6581597735904825
H -1.523729682568857 2.7841327476742985 -2.5333729129695888
O 5.113281461230644 -1.9768301525189897 5.815243712022484
H 4.924551378719855 -1.9535585399813464 4.865082281051215
H 5.741766723599715 -2.7081038443059193 5.9111968619717885
O 7.580095434313315 -3.439737703977084 -8.518798690128518
H 7.133752196903151 -3.2746644710106647 -7.6747039685029
H 7.9065793205305095 -2.567240796878939 -8.785480829471759
O -5.930067341982891 -7.188729338500935 6.5976118493596765
H -5.832814369856005 -7.180342047703566 5.6335377496839465
H -6.503105487771068 -7.951232836921344 6.768426493545373
O 2.288884226118421 -0.43594123038460253 -13.158037645413632
H 2.3054471997231776 -0.47999995217002484 -12.19017822698552
H 1.5433858406654475 0.1516261774701938 -13.352867424487071
O -3.2978237881300303 -10.778618556187586 -4.424136143917771
H -3.69133252434815 -10.959022760206965 -3.557203300733159
H -2.453109478725758 -11.252838860224756 -4.401010767670933
O 3.8116210762912295 4.318423686976049 -5.311484323319905
H 4.038885140048447 4.205874698594212 -6.246712171193771
H 4.617929286455848 4.683355677491385 -4.916954657997203
O -4.594405430079235 3.2493137786793174 -5.639117092835015
H -3.842210562795577 3.5235215855822295 -5.093241358655874
H -5.14557361570157 4.044366852667759 -5.694490236138543
O 0.5630740420260232 -11.158074535785483 0.6139423598554444
H 1.3312510046122203 -10.68224790023951 0.9638859609640323
H -0.03423860308719151 -10.454062210021526 0.31975501570162207
O -7.46652842428617 -9.206295057436517 -7.982147124016625
H -8.2833635821245 -8.991438129812177 -8.457104156253292
H -7.613563412604435 -8.852972726112556 -7.091919070820115
C -11.439047273197735 6.314849862110167 -12.25643242661187
O -11.9832662902009 6.56078034114046 -13.293814766116471
O -10.89482825619457 6.068919383079874 -11.219050087107268
C -3.182044628662508 -3.0556843569367884 9.377825260096657
O -3.768839193208455 -2.9201294040588044 10.440403488920106
O -3.638648495381375 -2.7564796918751204 8.26849170277374
O -2.040792668005022 -3.5130517612943937 9.247412821554038