104

C -5.0710522388059704 1.0783507462686561 0.47044029850746183
C -3.8153522388059704 0.1782507462686569 0.19534029850746193
C -4.11845223880597 -1.3219492537313435 0.5608402985074619
C -2.96945223880597 -2.3874492537313436 0.7034402985074619
C -2.52015223880597 0.7359507462686565 0.7384402985074618
C -2.20305223880597 0.7852507462686571 2.097440298507462
C -1.5755522388059702 1.205650746268656 -0.18965970149253808
C -0.9533522388059701 1.2695507462686564 2.508640298507462
H -2.91125223880597 0.4298507462686567 2.840840298507462
C -0.32655223880597006 1.6562507462686575 0.21554029850746192
H -1.7850522388059702 1.178550746268657 -1.2573597014925382
C 0.004447761194029898 1.6956507462686563 1.569740298507462
H -0.7158522388059702 1.2676507462686573 3.5705402985074617
H 0.3943477611940298 1.9193507462686572 -0.5551597014925382
C -1.76045223880597 -2.1592492537313435 -0.1734597014925381
C -0.5287522388059701 -1.936549253731343 0.464840298507462
C -1.8068522388059702 -2.121249253731343 -1.5681597014925381
C 0.6114477611940299 -1.614449253731343 -0.2582597014925381
H -0.4544522388059702 -1.954049253731343 1.5506402985074619
C -0.6479522388059701 -1.8270492537313432 -2.2998597014925384
H -2.74345223880597 -2.290549253731343 -2.092259701492538
C 0.5698477611940298 -1.5506492537313434 -1.6506597014925382
H 1.5072477611940298 -1.351949253731343 0.2991402985074618
H -0.7173522388059701 -1.7640492537313435 -3.3840597014925375
C 1.7791477611940298 -1.082849253731343 -2.4255597014925376
H 1.4739477611940297 -0.9102492537313429 -3.464259701492538
H 2.1252477611940295 -0.1337492537313434 -2.0010597014925384
C 1.3965477611940298 2.0964507462686566 1.997440298507462
H 1.51704776119403 1.8448507462686567 3.057640298507462
H 2.1256477611940294 1.5207507462686571 1.4165402985074618
C 3.94864776119403 -1.4275492537313434 -3.522959701492538
H 4.81734776119403 -2.087049253731343 -3.615159701492538
H 3.4305477611940303 -1.3641492537313429 -4.484459701492538
H 4.26984776119403 -0.441449253731343 -3.176459701492538
C 2.60904776119403 -3.4296492537313434 -2.8992597014925376
H 1.9825477611940296 -3.869549253731343 -2.119359701492538
H 2.06294776119403 -3.373349253731343 -3.845759701492538
H 3.5215477611940305 -4.019849253731343 -3.0234597014925377
C 3.7281477611940304 -2.060049253731343 -1.156659701492538
H 3.9048477611940298 -1.032549253731343 -0.8295597014925382
H 3.12924776119403 -2.623249253731343 -0.4404597014925382
H 4.68244776119403 -2.5769492537313434 -1.3005597014925383
C 3.1110477611940297 3.755250746268656 2.588740298507462
H 3.40124776119403 4.809350746268656 2.534540298507462
H 2.9823477611940303 3.461750746268656 3.634840298507462
H 3.86514776119403 3.1392507462686563 2.091540298507462
C 1.99744776119403 3.9574507462686572 0.40494029850746194
H 2.67914776119403 3.230350746268657 -0.04295970149253803
H 1.03214776119403 3.981150746268657 -0.10175970149253821
H 2.4399477611940297 4.958250746268657 0.368240298507462
C 0.7418477611940297 4.4992507462686575 2.475440298507462
H -0.18475223880597014 4.424250746268656 1.901240298507462
H 0.57844776119403 4.189650746268656 3.511940298507462
H 1.1210477611940297 5.524350746268658 2.4432402985074617
N 3.00114776119403 -2.025349253731343 -2.490159701492538
N 1.7831477611940298 3.586450746268657 1.862540298507462
C -3.55075223880597 -3.8435492537313434 0.6444402985074619
H -2.62515223880597 -2.2736492537313433 1.7424402985074618
H -4.67195223880597 -1.3478492537313436 1.5102402985074619
H -4.83415223880597 -1.6757492537313432 -0.1945597014925382
H -3.7169522388059697 0.17335074626865676 -0.900559701492538
H -3.9132522388059705 -4.043149253731343 -0.34225970149253815
H -4.35435223880597 -3.9354492537313432 1.3449402985074619
H -2.78115223880597 -4.545049253731343 0.8904402985074619
H -5.24235223880597 1.138950746268657 1.5249402985074618
H -5.92805223880597 0.6501507462686567 -0.006059701492538094
H -4.89895223880597 2.059650746268657 0.08004029850746197
O -3.970695811510873 7.185003888516647 -3.9434709760032205
H -4.028218978965103 6.9434990037244555 -3.006809973971245
H -3.0535971465741047 6.982073155968509 -4.181611902470455
O -1.4449037915586496 3.7614616460206185 3.589380004774684
H -2.0656992867749824 4.50160906873664 3.5134714896664248
H -1.9990374348668216 2.9770455079061215 3.4605810454638686
O 5.352229816845202 9.5515291385038 7.8318390054509655
H 5.544944463969696 10.13503700592282 7.082608072864895
H 6.20910908540768 9.151640349416446 8.043519944059243
O -3.416417210396735 3.0322397971715205 11.730050914040358
H -3.817291105142702 2.8816352877130913 12.599295275047082
H -4.166890232542884 3.0020834969476033 11.117806857403114
O 6.1757333931908995 6.21318818984498 -6.865590673875469
H 6.085262522976389 6.974723050745688 -7.457914094124551
H 7.076038603620614 5.894647517124997 -7.0297379010716865
O 7.5797330461876875 -7.053312797992939 -11.40217771007378
H 8.38185892183062 -7.081036984955816 -11.945125963576182
H 7.868640592390426 -6.6311944677382515 -10.579188956013247
O -6.8730813847479535 -3.7976644635221737 8.834480412326604
H -7.523660566724565 -3.406246409654204 8.232395707334977
H -7.3218832584025515 -3.802058925236102 9.693269973983222
O 1.3930181678725098 -8.88314742002151 -0.8422367783864826
H 1.3461017699407738 -8.859638927784955 -1.8098180717659464
H 0.4742260742340312 -9.020321458268054 -0.5666169021101944
O -0.5359656271168014 -5.1189614922326125 -0.4406831232817935
H -0.7491987477615654 -4.584605333367999 -1.2204026168456985
H 0.4324313078918502 -5.1091628023994105 -0.40792177038846467
O -0.46332801387047406 -0.45407899597768636 7.1508343804245085
H -0.6422881267814124 -0.22549648558543584 6.226339561169321
H -0.1623639335915792 -1.374267184800407 7.110383622297629
C 3.541394586383132 -0.8294807737923622 3.8945955721980723
O 4.681601567781907 -1.0020550295472404 3.5737148729964145
O 2.401187604984358 -0.656906518037484 4.21547627139973
C 1.555368657768669 0.7866288143252126 -8.8349593891239
O 1.3667423100172396 0.2346326276882581 -7.761881661523417
O 1.1798610786378423 0.35829520427962575 -9.93229973770342
O 2.1509610181992294 1.8590091658614258 -8.989615479323483