101

C -3.401917808219178 -4.3452465753424665 1.2539041095890413
C -3.863917808219178 -3.1942465753424663 0.3669041095890413
H -3.987917808219178 -5.2442465753424665 1.0349041095890414
H -2.348917808219178 -4.589246575342466 1.0849041095890413
H -3.536917808219178 -4.103246575342466 2.3129041095890415
C -3.173917808219178 -1.8472465753424663 0.6969041095890414
H -3.708917808219178 -3.465246575342466 -0.6840958904109589
H -4.946917808219178 -3.0852465753424663 0.5039041095890413
C -3.851917808219178 -0.7012465753424664 -0.10909589041095868
H -3.360917808219178 -1.6462465753424667 1.7609041095890414
H -3.595917808219178 -0.769246575342466 -1.1730958904109587
H -4.935917808219178 -0.8742465753424664 -0.05709589041095864
C -3.599917808219178 0.738753424657534 0.42590410958904124
C -4.646917808219178 1.7047534246575333 -0.18409589041095886
H -3.783917808219178 0.7127534246575342 1.5089041095890412
H -4.511917808219178 1.788753424657533 -1.2690958904109588
H -5.6509178082191776 1.291753424657533 -0.0260958904109585
C -4.619917808219178 3.0987534246575335 0.43190410958904124
H -5.438917808219178 3.701753424657533 0.026904109589041214
H -4.741917808219178 3.049753424657534 1.5189041095890414
H -3.684917808219178 3.621753424657533 0.21090410958904138
C -2.186917808219178 1.2487534246575338 0.18490410958904135
C -1.3909178082191778 1.6357534246575343 1.2729041095890414
C -1.642917808219178 1.336753424657533 -1.1040958904109588
C -0.07091780821917787 2.0507534246575334 1.0819041095890412
H -1.7819178082191778 1.5797534246575333 2.2859041095890413
C -0.32191780821917787 1.751753424657534 -1.2960958904109585
H -2.2299178082191777 1.0457534246575335 -1.9720958904109587
C 0.4830821917808221 2.1047534246575337 -0.20509589041095877
H 0.5380821917808222 2.289753424657534 1.9519041095890413
H 0.09008219178082211 1.7527534246575334 -2.3040958904109585
C -1.671917808219178 -1.934246575342466 0.4719041095890413
C -0.7959178082191778 -1.7752465753424662 1.5539041095890413
C -1.1299178082191779 -2.136246575342466 -0.8050958904109589
C 0.5870821917808221 -1.7472465753424666 1.3539041095890414
H -1.183917808219178 -1.6162465753424664 2.5569041095890412
C 0.25208219178082214 -2.109246575342466 -1.0060958904109585
H -1.780917808219178 -2.2652465753424664 -1.6670958904109585
C 1.1250821917808222 -1.894246575342466 0.06890410958904125
H 1.2370821917808223 -1.5462465753424661 2.202904109589041
H 0.6390821917808222 -2.1962465753424665 -2.0190958904109584
C 2.6130821917808222 -1.7192465753424662 -0.16809589041095885
H 2.747082191780822 -1.3052465753424665 -1.1690958904109587
H 2.993082191780822 -1.030246575342466 0.5869041095890413
C 1.942082191780822 2.4707534246575333 -0.4040958904109586
H 2.497082191780822 2.164753424657534 0.4859041095890413
H 2.313082191780822 1.9427534246575346 -1.2840958904109585
C 4.926082191780822 -2.5182465753424665 -0.3730958904109585
H 5.576082191780822 -3.3982465753424664 -0.3330958904109589
H 4.966082191780822 -2.0922465753424664 -1.3760958904109586
H 5.226082191780822 -1.8192465753424658 0.4079041095890412
C 3.090082191780822 -3.982246575342466 -1.1490958904109587
H 2.094082191780822 -4.371246575342466 -0.9220958904109589
H 3.0970821917808222 -3.486246575342466 -2.1250958904109583
H 3.811082191780822 -4.806246575342467 -1.1430958904109585
C 3.442082191780822 -3.591246575342466 1.2849041095890414
H 3.694082191780822 -2.8212465753424665 2.0199041095890413
H 2.441082191780822 -3.989246575342466 1.4719041095890413
H 4.169082191780822 -4.408246575342466 1.3329041095890413
C 3.7820821917808223 4.059753424657534 -0.7540958904109587
H 4.047082191780822 5.115753424657533 -0.8690958904109585
H 4.233082191780822 3.669753424657533 0.16090410958904133
H 4.075082191780822 3.517753424657534 -1.6500958904109586
C 1.6460821917808222 4.456753424657534 -1.9150958904109587
H 1.9550821917808219 3.7937534246575337 -2.7290958904109583
H 0.5570821917808221 4.465753424657534 -1.8180958904109588
H 2.001082191780822 5.474753424657533 -2.1040958904109583
C 1.816082191780822 4.799753424657534 0.5469041095890412
H 0.7240821917808221 4.800753424657533 0.6029041095890413
H 2.250082191780822 4.381753424657533 1.4599041095890413
H 2.169082191780822 5.825753424657534 0.3999041095890412
N 3.486082191780822 -2.994246575342466 -0.09209589041095878
N 2.249082191780822 3.972753424657534 -0.6250958904109587
O 8.933036990742508 6.222298197814798 3.2881955460835597
H 8.85107720591024 5.326972327422805 3.6496392296320064
H 9.591848678932639 6.130831592368638 2.583523307456107
O 3.4756429032238456 5.081760869598052 10.175582205720673
H 3.6759147212917553 5.6344460039784785 10.945905318461467
H 4.346728817717509 4.808744036660301 9.850569770876442
O 3.1469877503418155 -0.6940920553732557 -14.060474728872443
H 3.8850083725754936 -0.7823813804746633 -14.682164292184353
H 3.1315671076731464 -1.5429597276197473 -13.593411753360034
O -8.333359120987506 -8.75996300026771 -1.8158752017440416
H -8.818684891612802 -9.522746291641221 -2.1645697724909314
H -8.924168281242661 -8.010315754963482 -1.983014329617744
O -6.222692336240713 -4.110509541323706 -16.06420800076072
H -7.12095579026703 -4.411877347658961 -16.267352209059624
H -6.3378773314278884 -3.180314533574886 -15.818379587547543
O -10.676001081117038 -0.3942472775286672 -6.22162466378834
H -10.605838857388012 -0.36606160784352326 -5.255575913835316
H -11.439783426451495 0.1690339935965195 -6.417360922194885
O -7.934894401198147 -0.4245298913860117 4.960575336137752
H -7.86105817079449 -0.34343011012961056 3.9977989376630365
H -7.433076763754862 0.3324495782179242 5.298396421401806
O 4.5951029685339115 -8.459358238406999 -3.7977038657607585
H 4.420680732257843 -8.524344033103514 -2.846745881999058
H 5.423894365944552 -8.946917437332571 -3.9175070018681772
C 4.203822733935841 0.5567722355664895 0.7398300809938392
O 4.6105304512908525 0.22763197784641998 1.8434745083307609
O 4.585397345076315 0.07502206978548998 -0.3329928578003384
O 3.3477171429313968 1.422553069241049 0.5249925854472832