101

C -3.401917808219178 -4.3452465753424665 1.2539041095890413
C -3.863917808219178 -3.1942465753424663 0.3669041095890413
H -3.987917808219178 -5.2442465753424665 1.0349041095890414
H -2.348917808219178 -4.589246575342466 1.0849041095890413
H -3.536917808219178 -4.103246575342466 2.3129041095890415
C -3.173917808219178 -1.8472465753424663 0.6969041095890414
H -3.708917808219178 -3.465246575342466 -0.6840958904109589
H -4.946917808219178 -3.0852465753424663 0.5039041095890413
C -3.851917808219178 -0.7012465753424664 -0.10909589041095868
H -3.360917808219178 -1.6462465753424667 1.7609041095890414
H -3.595917808219178 -0.769246575342466 -1.1730958904109587
H -4.935917808219178 -0.8742465753424664 -0.05709589041095864
C -3.599917808219178 0.738753424657534 0.42590410958904124
C -4.646917808219178 1.7047534246575333 -0.18409589041095886
H -3.783917808219178 0.7127534246575342 1.5089041095890412
H -4.511917808219178 1.788753424657533 -1.2690958904109588
H -5.6509178082191776 1.291753424657533 -0.0260958904109585
C -4.619917808219178 3.0987534246575335 0.43190410958904124
H -5.438917808219178 3.701753424657533 0.026904109589041214
H -4.741917808219178 3.049753424657534 1.5189041095890414
H -3.684917808219178 3.621753424657533 0.21090410958904138
C -2.186917808219178 1.2487534246575338 0.18490410958904135
C -1.3909178082191778 1.6357534246575343 1.2729041095890414
C -1.642917808219178 1.336753424657533 -1.1040958904109588
C -0.07091780821917787 2.0507534246575334 1.0819041095890412
H -1.7819178082191778 1.5797534246575333 2.2859041095890413
C -0.32191780821917787 1.751753424657534 -1.2960958904109585
H -2.2299178082191777 1.0457534246575335 -1.9720958904109587
C 0.4830821917808221 2.1047534246575337 -0.20509589041095877
H 0.5380821917808222 2.289753424657534 1.9519041095890413
H 0.09008219178082211 1.7527534246575334 -2.3040958904109585
C -1.671917808219178 -1.934246575342466 0.4719041095890413
C -0.7959178082191778 -1.7752465753424662 1.5539041095890413
C -1.1299178082191779 -2.136246575342466 -0.8050958904109589
C 0.5870821917808221 -1.7472465753424666 1.3539041095890414
H -1.183917808219178 -1.6162465753424664 2.5569041095890412
C 0.25208219178082214 -2.109246575342466 -1.0060958904109585
H -1.780917808219178 -2.2652465753424664 -1.6670958904109585
C 1.1250821917808222 -1.894246575342466 0.06890410958904125
H 1.2370821917808223 -1.5462465753424661 2.202904109589041
H 0.6390821917808222 -2.1962465753424665 -2.0190958904109584
C 2.6130821917808222 -1.7192465753424662 -0.16809589041095885
H 2.747082191780822 -1.3052465753424665 -1.1690958904109587
H 2.993082191780822 -1.030246575342466 0.5869041095890413
C 1.942082191780822 2.4707534246575333 -0.4040958904109586
H 2.497082191780822 2.164753424657534 0.4859041095890413
H 2.313082191780822 1.9427534246575346 -1.2840958904109585
C 4.926082191780822 -2.5182465753424665 -0.3730958904109585
H 5.576082191780822 -3.3982465753424664 -0.3330958904109589
H 4.966082191780822 -2.0922465753424664 -1.3760958904109586
H 5.226082191780822 -1.8192465753424658 0.4079041095890412
C 3.090082191780822 -3.982246575342466 -1.1490958904109587
H 2.094082191780822 -4.371246575342466 -0.9220958904109589
H 3.0970821917808222 -3.486246575342466 -2.1250958904109583
H 3.811082191780822 -4.806246575342467 -1.1430958904109585
C 3.442082191780822 -3.591246575342466 1.2849041095890414
H 3.694082191780822 -2.8212465753424665 2.0199041095890413
H 2.441082191780822 -3.989246575342466 1.4719041095890413
H 4.169082191780822 -4.408246575342466 1.3329041095890413
C 3.7820821917808223 4.059753424657534 -0.7540958904109587
H 4.047082191780822 5.115753424657533 -0.8690958904109585
H 4.233082191780822 3.669753424657533 0.16090410958904133
H 4.075082191780822 3.517753424657534 -1.6500958904109586
C 1.6460821917808222 4.456753424657534 -1.9150958904109587
H 1.9550821917808219 3.7937534246575337 -2.7290958904109583
H 0.5570821917808221 4.465753424657534 -1.8180958904109588
H 2.001082191780822 5.474753424657533 -2.1040958904109583
C 1.816082191780822 4.799753424657534 0.5469041095890412
H 0.7240821917808221 4.800753424657533 0.6029041095890413
H 2.250082191780822 4.381753424657533 1.4599041095890413
H 2.169082191780822 5.825753424657534 0.3999041095890412
N 3.486082191780822 -2.994246575342466 -0.09209589041095878
N 2.249082191780822 3.972753424657534 -0.6250958904109587
O 6.208693504093641 -9.746209040363292 1.3896998982536621
H 5.793652011535402 -10.17985775075258 2.1503947860587136
H 7.043572968344548 -9.403437143747896 1.742468450370775
O -9.24321779841348 3.7115456206426902 -2.1293349738537866
H -9.326815279685654 3.7555112231925856 -1.1649461291353427
H -9.916512088117965 3.066669386365157 -2.3934777121892568
O -9.439456879101948 -1.310414674261333 -12.724449423520026
H -9.389237295992995 -1.4952534821570889 -13.67433360881213
H -8.704397609394844 -1.817421291645784 -12.348159503051729
O 9.53494861785497 -2.0151004191634003 1.9357947008603131
H 9.54825231753635 -1.9601024929220046 0.968444921006131
H 10.365096290473582 -2.46371401421616 2.156164000627193
O 10.241908748452314 -2.7833736836853795 5.928427794275161
H 10.71827424074663 -3.6213633116786674 6.027506843659296
H 10.525046888740402 -2.261246269510548 6.694050221572919
O 0.8794191972826928 -1.4585132983014562 -9.499409234151777
H 0.9791415218557513 -1.602726408481387 -10.452417835232575
H 0.8225876860286018 -2.3533395148532423 -9.131961053042941
O -9.575280819699179 -0.5564282783508361 -8.99987000595058
H -9.60709285707273 -0.48904315637857065 -9.966003845806593
H -8.789953305086772 -0.044194924547102055 -8.75524860389492
O -10.43261180370062 -5.532059062972718 9.57998060277281
H -11.08717506036674 -5.35536774049868 10.272291570824754
H -10.927610985075882 -6.028564738554544 8.911086090272628
C 3.223570187847214 -4.009650811936053 -4.704275590022695
O 3.6372749455923206 -4.167814910271685 -5.8425233618266805
O 3.7090774808484426 -3.2362899322946164 -3.87071270554256
O 2.255366669672612 -4.598484820506311 -4.20980128113961