101

C -3.401917808219178 -4.3452465753424665 1.2539041095890413
C -3.863917808219178 -3.1942465753424663 0.3669041095890413
H -3.987917808219178 -5.2442465753424665 1.0349041095890414
H -2.348917808219178 -4.589246575342466 1.0849041095890413
H -3.536917808219178 -4.103246575342466 2.3129041095890415
C -3.173917808219178 -1.8472465753424663 0.6969041095890414
H -3.708917808219178 -3.465246575342466 -0.6840958904109589
H -4.946917808219178 -3.0852465753424663 0.5039041095890413
C -3.851917808219178 -0.7012465753424664 -0.10909589041095868
H -3.360917808219178 -1.6462465753424667 1.7609041095890414
H -3.595917808219178 -0.769246575342466 -1.1730958904109587
H -4.935917808219178 -0.8742465753424664 -0.05709589041095864
C -3.599917808219178 0.738753424657534 0.42590410958904124
C -4.646917808219178 1.7047534246575333 -0.18409589041095886
H -3.783917808219178 0.7127534246575342 1.5089041095890412
H -4.511917808219178 1.788753424657533 -1.2690958904109588
H -5.6509178082191776 1.291753424657533 -0.0260958904109585
C -4.619917808219178 3.0987534246575335 0.43190410958904124
H -5.438917808219178 3.701753424657533 0.026904109589041214
H -4.741917808219178 3.049753424657534 1.5189041095890414
H -3.684917808219178 3.621753424657533 0.21090410958904138
C -2.186917808219178 1.2487534246575338 0.18490410958904135
C -1.3909178082191778 1.6357534246575343 1.2729041095890414
C -1.642917808219178 1.336753424657533 -1.1040958904109588
C -0.07091780821917787 2.0507534246575334 1.0819041095890412
H -1.7819178082191778 1.5797534246575333 2.2859041095890413
C -0.32191780821917787 1.751753424657534 -1.2960958904109585
H -2.2299178082191777 1.0457534246575335 -1.9720958904109587
C 0.4830821917808221 2.1047534246575337 -0.20509589041095877
H 0.5380821917808222 2.289753424657534 1.9519041095890413
H 0.09008219178082211 1.7527534246575334 -2.3040958904109585
C -1.671917808219178 -1.934246575342466 0.4719041095890413
C -0.7959178082191778 -1.7752465753424662 1.5539041095890413
C -1.1299178082191779 -2.136246575342466 -0.8050958904109589
C 0.5870821917808221 -1.7472465753424666 1.3539041095890414
H -1.183917808219178 -1.6162465753424664 2.5569041095890412
C 0.25208219178082214 -2.109246575342466 -1.0060958904109585
H -1.780917808219178 -2.2652465753424664 -1.6670958904109585
C 1.1250821917808222 -1.894246575342466 0.06890410958904125
H 1.2370821917808223 -1.5462465753424661 2.202904109589041
H 0.6390821917808222 -2.1962465753424665 -2.0190958904109584
C 2.6130821917808222 -1.7192465753424662 -0.16809589041095885
H 2.747082191780822 -1.3052465753424665 -1.1690958904109587
H 2.993082191780822 -1.030246575342466 0.5869041095890413
C 1.942082191780822 2.4707534246575333 -0.4040958904109586
H 2.497082191780822 2.164753424657534 0.4859041095890413
H 2.313082191780822 1.9427534246575346 -1.2840958904109585
C 4.926082191780822 -2.5182465753424665 -0.3730958904109585
H 5.576082191780822 -3.3982465753424664 -0.3330958904109589
H 4.966082191780822 -2.0922465753424664 -1.3760958904109586
H 5.226082191780822 -1.8192465753424658 0.4079041095890412
C 3.090082191780822 -3.982246575342466 -1.1490958904109587
H 2.094082191780822 -4.371246575342466 -0.9220958904109589
H 3.0970821917808222 -3.486246575342466 -2.1250958904109583
H 3.811082191780822 -4.806246575342467 -1.1430958904109585
C 3.442082191780822 -3.591246575342466 1.2849041095890414
H 3.694082191780822 -2.8212465753424665 2.0199041095890413
H 2.441082191780822 -3.989246575342466 1.4719041095890413
H 4.169082191780822 -4.408246575342466 1.3329041095890413
C 3.7820821917808223 4.059753424657534 -0.7540958904109587
H 4.047082191780822 5.115753424657533 -0.8690958904109585
H 4.233082191780822 3.669753424657533 0.16090410958904133
H 4.075082191780822 3.517753424657534 -1.6500958904109586
C 1.6460821917808222 4.456753424657534 -1.9150958904109587
H 1.9550821917808219 3.7937534246575337 -2.7290958904109583
H 0.5570821917808221 4.465753424657534 -1.8180958904109588
H 2.001082191780822 5.474753424657533 -2.1040958904109583
C 1.816082191780822 4.799753424657534 0.5469041095890412
H 0.7240821917808221 4.800753424657533 0.6029041095890413
H 2.250082191780822 4.381753424657533 1.4599041095890413
H 2.169082191780822 5.825753424657534 0.3999041095890412
N 3.486082191780822 -2.994246575342466 -0.09209589041095878
N 2.249082191780822 3.972753424657534 -0.6250958904109587
O 0.039490001979815226 4.6145736884775665 5.515338128785096
H 0.5387774355765584 3.8704073039844733 5.883978614547113
H -0.8857801769619411 4.3379887047871435 5.594948348343
O 1.520725179280356 -0.3102092283668058 -0.07003351846399261
H 1.375408179770054 -0.2340782870494275 0.8849818773948668
H 2.222308754520066 0.33292239914863764 -0.2520339056701794
O -8.955191453739143 -2.8573050975160803 4.262081306532799
H -9.554070973643796 -2.1993707108439953 4.646051383977907
H -8.524371792978759 -2.3849231319137685 3.5339249752577055
O 13.526890014468567 -4.429615183917458 3.465342900240227
H 13.593304451854188 -5.396238382709007 3.479345434466106
H 13.382012324906235 -4.218473055652624 2.5307887814012595
O 4.522586962884834 -8.380731947039685 -4.3539508960652595
H 5.416507913110396 -8.461653593603632 -3.988814786148412
H 4.351580283830394 -7.4269815605317095 -4.345070566417148
O -2.3813444458992197 8.519140551228507 -12.711854965934121
H -2.3922556009614024 8.473675678820554 -13.679729569884518
H -2.838915255851252 7.7112918377393385 -12.43441784820519
O -3.027322705906656 -7.671919998236738 1.0130909950678708
H -2.20152280535981 -7.890026522014189 0.5554323608845575
H -2.804386066590282 -7.75836364707693 1.9521270405557498
O -0.4245139017715993 9.58945170321017 1.7196784615895317
H -0.6432964659940024 9.507991100061805 2.6601388364203777
H -1.0505282489828238 10.251676609128513 1.3902453798154806
C -0.6866673887303658 -6.147787643825312 -2.207816201200947
O -1.6136373063258265 -6.793581063135597 -1.743646910910654
O -0.11154309714724353 -5.214647726240431 -1.6358779112249269
O -0.18025898132725682 -6.327462148586998 -3.321331347775114