101

C -3.401917808219178 -4.3452465753424665 1.2539041095890413
C -3.863917808219178 -3.1942465753424663 0.3669041095890413
H -3.987917808219178 -5.2442465753424665 1.0349041095890414
H -2.348917808219178 -4.589246575342466 1.0849041095890413
H -3.536917808219178 -4.103246575342466 2.3129041095890415
C -3.173917808219178 -1.8472465753424663 0.6969041095890414
H -3.708917808219178 -3.465246575342466 -0.6840958904109589
H -4.946917808219178 -3.0852465753424663 0.5039041095890413
C -3.851917808219178 -0.7012465753424664 -0.10909589041095868
H -3.360917808219178 -1.6462465753424667 1.7609041095890414
H -3.595917808219178 -0.769246575342466 -1.1730958904109587
H -4.935917808219178 -0.8742465753424664 -0.05709589041095864
C -3.599917808219178 0.738753424657534 0.42590410958904124
C -4.646917808219178 1.7047534246575333 -0.18409589041095886
H -3.783917808219178 0.7127534246575342 1.5089041095890412
H -4.511917808219178 1.788753424657533 -1.2690958904109588
H -5.6509178082191776 1.291753424657533 -0.0260958904109585
C -4.619917808219178 3.0987534246575335 0.43190410958904124
H -5.438917808219178 3.701753424657533 0.026904109589041214
H -4.741917808219178 3.049753424657534 1.5189041095890414
H -3.684917808219178 3.621753424657533 0.21090410958904138
C -2.186917808219178 1.2487534246575338 0.18490410958904135
C -1.3909178082191778 1.6357534246575343 1.2729041095890414
C -1.642917808219178 1.336753424657533 -1.1040958904109588
C -0.07091780821917787 2.0507534246575334 1.0819041095890412
H -1.7819178082191778 1.5797534246575333 2.2859041095890413
C -0.32191780821917787 1.751753424657534 -1.2960958904109585
H -2.2299178082191777 1.0457534246575335 -1.9720958904109587
C 0.4830821917808221 2.1047534246575337 -0.20509589041095877
H 0.5380821917808222 2.289753424657534 1.9519041095890413
H 0.09008219178082211 1.7527534246575334 -2.3040958904109585
C -1.671917808219178 -1.934246575342466 0.4719041095890413
C -0.7959178082191778 -1.7752465753424662 1.5539041095890413
C -1.1299178082191779 -2.136246575342466 -0.8050958904109589
C 0.5870821917808221 -1.7472465753424666 1.3539041095890414
H -1.183917808219178 -1.6162465753424664 2.5569041095890412
C 0.25208219178082214 -2.109246575342466 -1.0060958904109585
H -1.780917808219178 -2.2652465753424664 -1.6670958904109585
C 1.1250821917808222 -1.894246575342466 0.06890410958904125
H 1.2370821917808223 -1.5462465753424661 2.202904109589041
H 0.6390821917808222 -2.1962465753424665 -2.0190958904109584
C 2.6130821917808222 -1.7192465753424662 -0.16809589041095885
H 2.747082191780822 -1.3052465753424665 -1.1690958904109587
H 2.993082191780822 -1.030246575342466 0.5869041095890413
C 1.942082191780822 2.4707534246575333 -0.4040958904109586
H 2.497082191780822 2.164753424657534 0.4859041095890413
H 2.313082191780822 1.9427534246575346 -1.2840958904109585
C 4.926082191780822 -2.5182465753424665 -0.3730958904109585
H 5.576082191780822 -3.3982465753424664 -0.3330958904109589
H 4.966082191780822 -2.0922465753424664 -1.3760958904109586
H 5.226082191780822 -1.8192465753424658 0.4079041095890412
C 3.090082191780822 -3.982246575342466 -1.1490958904109587
H 2.094082191780822 -4.371246575342466 -0.9220958904109589
H 3.0970821917808222 -3.486246575342466 -2.1250958904109583
H 3.811082191780822 -4.806246575342467 -1.1430958904109585
C 3.442082191780822 -3.591246575342466 1.2849041095890414
H 3.694082191780822 -2.8212465753424665 2.0199041095890413
H 2.441082191780822 -3.989246575342466 1.4719041095890413
H 4.169082191780822 -4.408246575342466 1.3329041095890413
C 3.7820821917808223 4.059753424657534 -0.7540958904109587
H 4.047082191780822 5.115753424657533 -0.8690958904109585
H 4.233082191780822 3.669753424657533 0.16090410958904133
H 4.075082191780822 3.517753424657534 -1.6500958904109586
C 1.6460821917808222 4.456753424657534 -1.9150958904109587
H 1.9550821917808219 3.7937534246575337 -2.7290958904109583
H 0.5570821917808221 4.465753424657534 -1.8180958904109588
H 2.001082191780822 5.474753424657533 -2.1040958904109583
C 1.816082191780822 4.799753424657534 0.5469041095890412
H 0.7240821917808221 4.800753424657533 0.6029041095890413
H 2.250082191780822 4.381753424657533 1.4599041095890413
H 2.169082191780822 5.825753424657534 0.3999041095890412
N 3.486082191780822 -2.994246575342466 -0.09209589041095878
N 2.249082191780822 3.972753424657534 -0.6250958904109587
O 0.8668684575922776 -1.6216156226095306 6.523704581833403
H 1.6504551674896004 -1.637577623129784 7.093533011724087
H 0.7023561184126155 -0.6778099634807389 6.37834808093268
O 5.754942492391845 -10.285004483199543 -9.07123105356178
H 5.8175403816479845 -10.510866152925084 -10.011462603399089
H 6.428183216953149 -9.598691921409799 -8.950053751141882
O -2.89048214407189 4.3979127398400255 9.245543982162895
H -2.101016408421826 4.437205020884279 9.806050294156652
H -2.5396371211828797 4.226034505251944 8.358792840810995
O 9.081691801352727 -3.7625146287752442 1.827692474280673
H 8.973992193801859 -4.179048122557862 2.6959481969745323
H 8.212937116432387 -3.863144366086462 1.4104384776579475
O -9.001055420357604 -3.5257221416839206 -12.049298466895443
H -8.937229704015735 -3.517105532048493 -13.016159050884593
H -8.28977454851372 -4.123008282239059 -11.773090697363608
O 0.7806963437626164 5.550556076155237 -12.151185119633933
H 1.2254585390761115 5.865104720171791 -11.349803127655532
H 0.29263294018640007 4.767261691935019 -11.85587855682391
O 8.635145352336236 -6.25503878601207 1.4560549675793895
H 8.503139097558646 -6.6471280363083585 2.332301351538656
H 8.260037865040848 -6.909520714610144 0.8478529267956665
O -1.4406357472448637 -1.5793332313466315 -6.422980432826221
H -1.1311524513153361 -1.9360701421799142 -7.269104668910808
H -1.7132759779950586 -0.674264896392724 -6.636242145142898
C 2.638818636494558 -0.1521173515675891 2.6246093261898724
O 1.712095571944044 -0.9328701742567214 2.777530515346431
O 2.983949254997397 0.3413764525923948 1.5448037022336183
O 3.3749359298551287 0.26532411120241517 3.5260095369597315