101

C -3.401917808219178 -4.3452465753424665 1.2539041095890413
C -3.863917808219178 -3.1942465753424663 0.3669041095890413
H -3.987917808219178 -5.2442465753424665 1.0349041095890414
H -2.348917808219178 -4.589246575342466 1.0849041095890413
H -3.536917808219178 -4.103246575342466 2.3129041095890415
C -3.173917808219178 -1.8472465753424663 0.6969041095890414
H -3.708917808219178 -3.465246575342466 -0.6840958904109589
H -4.946917808219178 -3.0852465753424663 0.5039041095890413
C -3.851917808219178 -0.7012465753424664 -0.10909589041095868
H -3.360917808219178 -1.6462465753424667 1.7609041095890414
H -3.595917808219178 -0.769246575342466 -1.1730958904109587
H -4.935917808219178 -0.8742465753424664 -0.05709589041095864
C -3.599917808219178 0.738753424657534 0.42590410958904124
C -4.646917808219178 1.7047534246575333 -0.18409589041095886
H -3.783917808219178 0.7127534246575342 1.5089041095890412
H -4.511917808219178 1.788753424657533 -1.2690958904109588
H -5.6509178082191776 1.291753424657533 -0.0260958904109585
C -4.619917808219178 3.0987534246575335 0.43190410958904124
H -5.438917808219178 3.701753424657533 0.026904109589041214
H -4.741917808219178 3.049753424657534 1.5189041095890414
H -3.684917808219178 3.621753424657533 0.21090410958904138
C -2.186917808219178 1.2487534246575338 0.18490410958904135
C -1.3909178082191778 1.6357534246575343 1.2729041095890414
C -1.642917808219178 1.336753424657533 -1.1040958904109588
C -0.07091780821917787 2.0507534246575334 1.0819041095890412
H -1.7819178082191778 1.5797534246575333 2.2859041095890413
C -0.32191780821917787 1.751753424657534 -1.2960958904109585
H -2.2299178082191777 1.0457534246575335 -1.9720958904109587
C 0.4830821917808221 2.1047534246575337 -0.20509589041095877
H 0.5380821917808222 2.289753424657534 1.9519041095890413
H 0.09008219178082211 1.7527534246575334 -2.3040958904109585
C -1.671917808219178 -1.934246575342466 0.4719041095890413
C -0.7959178082191778 -1.7752465753424662 1.5539041095890413
C -1.1299178082191779 -2.136246575342466 -0.8050958904109589
C 0.5870821917808221 -1.7472465753424666 1.3539041095890414
H -1.183917808219178 -1.6162465753424664 2.5569041095890412
C 0.25208219178082214 -2.109246575342466 -1.0060958904109585
H -1.780917808219178 -2.2652465753424664 -1.6670958904109585
C 1.1250821917808222 -1.894246575342466 0.06890410958904125
H 1.2370821917808223 -1.5462465753424661 2.202904109589041
H 0.6390821917808222 -2.1962465753424665 -2.0190958904109584
C 2.6130821917808222 -1.7192465753424662 -0.16809589041095885
H 2.747082191780822 -1.3052465753424665 -1.1690958904109587
H 2.993082191780822 -1.030246575342466 0.5869041095890413
C 1.942082191780822 2.4707534246575333 -0.4040958904109586
H 2.497082191780822 2.164753424657534 0.4859041095890413
H 2.313082191780822 1.9427534246575346 -1.2840958904109585
C 4.926082191780822 -2.5182465753424665 -0.3730958904109585
H 5.576082191780822 -3.3982465753424664 -0.3330958904109589
H 4.966082191780822 -2.0922465753424664 -1.3760958904109586
H 5.226082191780822 -1.8192465753424658 0.4079041095890412
C 3.090082191780822 -3.982246575342466 -1.1490958904109587
H 2.094082191780822 -4.371246575342466 -0.9220958904109589
H 3.0970821917808222 -3.486246575342466 -2.1250958904109583
H 3.811082191780822 -4.806246575342467 -1.1430958904109585
C 3.442082191780822 -3.591246575342466 1.2849041095890414
H 3.694082191780822 -2.8212465753424665 2.0199041095890413
H 2.441082191780822 -3.989246575342466 1.4719041095890413
H 4.169082191780822 -4.408246575342466 1.3329041095890413
C 3.7820821917808223 4.059753424657534 -0.7540958904109587
H 4.047082191780822 5.115753424657533 -0.8690958904109585
H 4.233082191780822 3.669753424657533 0.16090410958904133
H 4.075082191780822 3.517753424657534 -1.6500958904109586
C 1.6460821917808222 4.456753424657534 -1.9150958904109587
H 1.9550821917808219 3.7937534246575337 -2.7290958904109583
H 0.5570821917808221 4.465753424657534 -1.8180958904109588
H 2.001082191780822 5.474753424657533 -2.1040958904109583
C 1.816082191780822 4.799753424657534 0.5469041095890412
H 0.7240821917808221 4.800753424657533 0.6029041095890413
H 2.250082191780822 4.381753424657533 1.4599041095890413
H 2.169082191780822 5.825753424657534 0.3999041095890412
N 3.486082191780822 -2.994246575342466 -0.09209589041095878
N 2.249082191780822 3.972753424657534 -0.6250958904109587
O -1.9632707059719925 -8.549817187913856 -2.9575229857847933
H -2.422401006995693 -7.937485855374792 -3.5518436591361606
H -1.0708758765033637 -8.179478993060384 -2.8837460647977506
O -12.271830611832161 1.2250287925031809 4.003168320229505
H -12.343174134050205 0.4727844063895268 3.3965334693529527
H -11.804578270590943 0.863005305654934 4.771006967911971
O 5.029555402725275 -4.067398435738904 -4.328496647148311
H 5.458889390876343 -3.2192714491835672 -4.516433599860822
H 4.1854637082455834 -4.012266119643199 -4.801182148652562
O 5.689744550504237 -6.841352728095046 9.464175879768302
H 5.561982851682081 -7.54548108845219 10.117511595426674
H 5.321274230367762 -6.054434176551252 9.893070692880729
O 4.57928365248591 0.5768978121124622 -0.07543174661509577
H 4.4098832377824095 0.012347555607633676 0.6936936425631679
H 5.286000097100594 1.170035996616111 0.22071163976200325
O 0.26604418542743447 -3.7529935248344173 1.3718280934522227
H 0.7288926012138737 -4.5933555649178635 1.5079542940558266
H 0.955508615624415 -3.083382744112855 1.495206155256629
O 9.295832711221122 4.21682563059045 2.7254246358586984
H 8.798671113259566 4.068525816283811 1.907008563503732
H 8.707850825181804 3.8840237273170732 3.420033978703483
O 3.7293446254027427 -9.897658459296224 7.481777071020337
H 3.6808493265255784 -9.90357955055935 6.514006176869729
H 2.8116936530323846 -9.760701060125653 7.761278963715484
C -0.5873438501466479 -0.41521115981411394 0.8148690381509444
O -1.773112604491422 -0.1930001994337087 1.0055264505598527
O -0.009767192313002854 -0.3154722833679717 -0.2737488125896075
O 0.21856531417848235 -0.7742157435394001 1.6810529170825508